ligand_52
  DSViewer          3D                             0

 42 44  0  0  0  0  0  0  0  0999 V2000
   70.6605   17.6989   55.3480 C   0  0
   70.7634   17.2576   54.0291 C   0  0
   70.0702   17.9182   53.0158 C   0  0
   69.2627   19.0279   53.2972 C   0  0
   69.1641   19.4676   54.6282 C   0  0
   69.8640   18.8080   55.6720 C   0  0
   67.7802   20.7113   52.1211 C   0  0
   68.6126   19.6078   52.1866 N   0  0
   67.4444   21.3904   53.0912 O   0  0
   67.2025   20.9778   50.7154 C   0  0
   68.3926   20.5692   49.3985 S   0  0
   69.7830   19.2520   57.1227 C   0  0
   71.0052   19.5464   57.6690 F   0  0
   69.0147   20.3598   57.3172 F   0  0
   69.2657   18.2915   57.9523 F   0  0
   67.4144   20.7202   47.9489 C   0  0
   65.6248   21.4364   46.7536 C   0  0
   66.1019   20.8718   45.6316 C   0  0
   67.4062   20.1635   45.7346 C   0  0
   66.3040   21.3822   47.9472 N   0  0
   67.9918   20.0922   46.9332 N   0  5
   67.8805   19.6668   44.7113 O   0  0
   65.4476   20.9253   44.3718 C   0  0
   64.8648   20.9826   43.3659 N   0  0
   64.3505   22.1937   46.7698 C   0  0
   64.3664   23.5661   47.0562 C   0  0
   63.1817   24.3049   47.0629 C   0  0
   61.9685   23.6754   46.7895 C   0  0
   61.9361   22.3084   46.5158 C   0  0
   63.1210   21.5687   46.5139 C   0  0
   71.2075   17.1741   56.1287 H   0  0
   71.3853   16.3987   53.7873 H   0  0
   70.1612   17.5589   51.9908 H   0  0
   68.5472   20.3282   54.8792 H   0  0
   68.8107   19.1962   51.2763 H   0  0
   66.9380   22.0373   50.6465 H   0  0
   66.3007   20.3669   50.6070 H   0  0
   65.3125   24.0532   47.2861 H   0  0
   63.2087   25.3684   47.2825 H   0  0
   61.0468   24.2501   46.7911 H   0  0
   60.9899   21.8187   46.3001 H   0  0
   63.0852   20.4996   46.3165 H   0  0
  1  2  2  0  0  0
  1  6  1  0  0  0
  1 31  1  0  0  0
  2  3  1  0  0  0
  2 32  1  0  0  0
  3  4  2  0  0  0
  3 33  1  0  0  0
  4  5  1  0  0  0
  4  8  1  0  0  0
  5  6  2  0  0  0
  5 34  1  0  0  0
  6 12  1  0  0  0
  7  8  1  0  0  0
  7  9  2  0  0  0
  7 10  1  0  0  0
  8 35  1  0  0  0
 10 11  1  0  0  0
 10 36  1  0  0  0
 10 37  1  0  0  0
 11 16  1  0  0  0
 12 13  1  0  0  0
 12 14  1  0  0  0
 12 15  1  0  0  0
 16 20  2  0  0  0
 16 21  1  0  0  0
 17 18  2  0  0  0
 17 20  1  0  0  0
 17 25  1  0  0  0
 18 19  1  0  0  0
 18 23  1  0  0  0
 19 21  1  0  0  0
 19 22  2  0  0  0
 23 24  3  0  0  0
 25 26  1  0  0  0
 25 30  2  0  0  0
 26 27  2  0  0  0
 26 38  1  0  0  0
 27 28  1  0  0  0
 27 39  1  0  0  0
 28 29  2  0  0  0
 28 40  1  0  0  0
 29 30  1  0  0  0
 29 41  1  0  0  0
 30 42  1  0  0  0
M  CHG  1  21  -1
M  END
> <IC50 (nM)>
200000

$$$$
ligand_109
  SciTegic07132122123D

 64 66  0  0  0  0            999 V2000
   70.8443   15.3666   56.4700 O   0  0
   71.1627   20.5403   56.2934 O   0  0
   69.2340   19.2504   53.7537 O   0  0
   68.0269   12.6753   58.0918 O   0  5
   68.1063   14.5124   56.8752 O   0  0
   70.8952   22.7140   54.5662 N   0  3
   68.9157   20.0671   56.5550 N   0  0
   69.8233   17.5411   55.1970 N   0  0
   68.4224   13.3383   57.1270 N   0  3
   69.1450   22.5979   56.3441 C   0  0
   69.4066   22.5614   54.8383 C   0  0
   68.3723   21.3797   56.8509 C   0  0
   71.2952   21.9761   53.3200 C   0  0
   71.3973   24.1292   54.6175 C   0  0
   70.2347   19.7385   56.3457 C   0  0
   70.4404   18.2580   56.2087 C   0  0
   71.4310   16.3057   57.2886 C   0  0
   71.1887   17.7055   57.1824 C   0  0
   71.2335   14.1293   56.8678 C   0  0
   70.6577   13.0435   56.1007 C   0  0
   72.2357   15.6162   58.1900 C   0  0
   72.1177   14.2288   57.9133 C   0  0
   69.3046   12.6776   56.1885 C   0  0
   69.2323   18.0613   54.0606 C   0  0
   68.6107   17.0735   53.1315 C   0  0
   71.4712   12.3429   55.1992 C   0  0
   68.7551   11.6644   55.3967 C   0  0
   68.0223   15.8893   53.5888 C   0  0
   68.5844   17.3700   51.7631 C   0  0
   67.4417   15.2776   51.3099 C   0  0
   70.9309   11.3415   54.3892 C   0  0
   67.4425   14.9959   52.6818 C   0  0
   68.0018   16.4783   50.8586 C   0  0
   69.5763   11.0195   54.4778 C   0  0
   66.7820   14.3375   50.3413 C   0  0
   68.2586   19.2922   56.5658 H   0  0
   69.9110   16.5286   55.2702 H   0  0
   68.5493   23.4909   56.5722 H   0  0
   70.0684   22.7072   56.9245 H   0  0
   69.0694   21.6311   54.3785 H   0  0
   68.9051   23.3892   54.3248 H   0  0
   67.3580   21.3912   56.4359 H   0  0
   68.2734   21.4392   57.9404 H   0  0
   72.3725   22.1041   53.1835 H   0  0
   70.7448   22.3997   52.4760 H   0  0
   71.0712   20.9172   53.4519 H   0  0
   72.4857   24.1039   54.5221 H   0  0
   71.1158   24.5574   55.5822 H   0  0
   70.9439   24.6856   53.7933 H   0  0
   71.6294   18.3392   57.9490 H   0  0
   72.8365   16.0653   58.9714 H   0  0
   72.6007   13.4081   58.4301 H   0  0
   72.5303   12.5796   55.1075 H   0  0
   67.7145   11.3559   55.4949 H   0  0
   67.9718   15.6594   54.6479 H   0  0
   69.0151   18.2970   51.3921 H   0  0
   71.5675   10.7897   53.6965 H   0  0
   66.9775   14.0810   53.0498 H   0  0
   67.9828   16.7273   49.7985 H   0  0
   69.1679   10.2368   53.8441 H   0  0
   65.7277   14.6045   50.2204 H   0  0
   66.8477   13.3033   50.6955 H   0  0
   67.2732   14.3778   49.3634 H   0  0
   71.3416   22.1397   55.3166 H   0  0
  1 17  1  0
  1 19  1  0
  2 15  2  0
  3 24  2  0
  4  9  1  0
  5  9  2  0
  6 11  1  0
  6 13  1  0
  6 14  1  0
  6 64  1  0
  7 12  1  0
  7 15  1  0
  7 36  1  0
  8 16  1  0
  8 24  1  0
  8 37  1  0
  9 23  1  0
 10 11  1  0
 10 12  1  0
 10 38  1  0
 10 39  1  0
 11 40  1  0
 11 41  1  0
 12 42  1  0
 12 43  1  0
 13 44  1  0
 13 45  1  0
 13 46  1  0
 14 47  1  0
 14 48  1  0
 14 49  1  0
 15 16  1  0
 16 18  2  0
 17 18  1  0
 17 21  2  0
 18 50  1  0
 19 20  1  0
 19 22  2  0
 20 23  2  0
 20 26  1  0
 21 22  1  0
 21 51  1  0
 22 52  1  0
 23 27  1  0
 24 25  1  0
 25 28  2  0
 25 29  1  0
 26 31  2  0
 26 53  1  0
 27 34  2  0
 27 54  1  0
 28 32  1  0
 28 55  1  0
 29 33  2  0
 29 56  1  0
 30 32  2  0
 30 33  1  0
 30 35  1  0
 31 34  1  0
 31 57  1  0
 32 58  1  0
 33 59  1  0
 34 60  1  0
 35 61  1  0
 35 62  1  0
 35 63  1  0
M  CHG  3   4  -1   6   1   9   1
M  END
> <Name>
ligand_109

> <IC50 (nM)>
41390

$$$$
ligand_112
  SciTegic07132122123D

 56 58  0  0  0  0            999 V2000
   72.0033   23.3625   54.3247 C   0  0
   72.0988   22.7499   53.0771 C   0  0
   71.4028   21.5658   52.8203 C   0  0
   70.5914   20.9952   53.8061 C   0  0
   70.5123   21.6079   55.0622 C   0  0
   71.2104   22.7894   55.3169 C   0  0
   69.8811   19.7291   53.5935 C   0  0
   68.9820   19.4497   52.6352 C   0  0
   68.3255   18.2361   52.4783 N   0  0
   68.5584   20.4948   51.6378 C   0  0
   68.8383   20.0530   50.3501 N   0  0
   67.9538   21.5039   51.9730 O   0  0
   68.3084   20.4940   49.1701 N   0  0
   67.2417   21.2259   49.1917 C   0  0
   66.5610   21.6277   47.9436 C   0  0
   67.1331   21.3612   46.6941 C   0  0
   66.4313   21.6675   45.5266 C   0  0
   65.1590   22.2421   45.6465 C   0  0
   64.5793   22.5139   46.8947 C   0  0
   65.2965   22.2157   48.0503 C   0  0
   63.3173   23.0621   46.8566 O   0  0
   62.6194   23.0575   48.1013 C   0  0
   64.4422   22.5280   44.5122 O   0  0
   66.8945   21.4516   44.2506 O   0  0
   68.0529   20.6297   44.1464 C   0  0
   68.5364   17.0601   53.1671 C   0  0
   67.5385   15.9819   52.9236 C   0  0
   69.4720   16.8314   53.9252 O   0  0
   66.1935   16.2628   52.6479 C   0  0
   65.2856   15.2155   52.4701 C   0  0
   65.7114   13.8909   52.5738 C   0  0
   67.0462   13.6102   52.8582 C   0  0
   67.9572   14.6507   53.0421 C   0  0
   72.5502   24.2790   54.5294 H   0  0
   72.7088   23.1892   52.2927 H   0  0
   71.5138   21.0966   51.8469 H   0  0
   69.9078   21.1714   55.8548 H   0  0
   71.1396   23.2558   56.2957 H   0  0
   70.1353   18.9812   54.3381 H   0  0
   67.6109   18.2294   51.7577 H   0  0
   69.5103   19.2975   50.2412 H   0  0
   66.7266   21.5259   50.1170 H   0  0
   68.1226   20.9180   46.6586 H   0  0
   64.8919   22.4204   49.0355 H   0  0
   61.5956   23.3913   47.9059 H   0  0
   63.0684   23.7667   48.8043 H   0  0
   62.5626   22.0500   48.5275 H   0  0
   63.6253   22.9702   44.8113 H   0  0
   68.2306   20.4423   43.0828 H   0  0
   67.9031   19.6591   44.6314 H   0  0
   68.9353   21.1435   44.5414 H   0  0
   65.8231   17.2832   52.6095 H   0  0
   64.2406   15.4349   52.2649 H   0  0
   65.0017   13.0761   52.4512 H   0  0
   67.3794   12.5803   52.9572 H   0  0
   68.9906   14.4154   53.2931 H   0  0
  1  2  1  0
  1  6  2  0
  1 34  1  0
  2  3  2  0
  2 35  1  0
  3  4  1  0
  3 36  1  0
  4  5  2  0
  4  7  1  0
  5  6  1  0
  5 37  1  0
  6 38  1  0
  7  8  2  0
  7 39  1  0
  8  9  1  0
  8 10  1  0
  9 26  1  0
  9 40  1  0
 10 11  1  0
 10 12  2  0
 11 13  1  0
 11 41  1  0
 13 14  2  0
 14 15  1  0
 14 42  1  0
 15 16  1  0
 15 20  2  0
 16 17  2  0
 16 43  1  0
 17 18  1  0
 17 24  1  0
 18 19  2  0
 18 23  1  0
 19 20  1  0
 19 21  1  0
 20 44  1  0
 21 22  1  0
 22 45  1  0
 22 46  1  0
 22 47  1  0
 23 48  1  0
 24 25  1  0
 25 49  1  0
 25 50  1  0
 25 51  1  0
 26 27  1  0
 26 28  2  0
 27 29  2  0
 27 33  1  0
 29 30  1  0
 29 52  1  0
 30 31  2  0
 30 53  1  0
 31 32  1  0
 31 54  1  0
 32 33  2  0
 32 55  1  0
 33 56  1  0
M  END
> <Name>
ligand_112

> <IC50 (nM)>
77090

$$$$
ligand_117
  SciTegic07132122123D

 50 54  0  0  0  0            999 V2000
   64.6789   22.5390   45.5509 C   0  0
   65.3312   22.6093   44.3200 C   0  0
   66.6613   22.2259   44.2448 C   0  0
   67.3358   21.7799   45.3772 C   0  0
   66.6866   21.6960   46.6246 C   0  0
   65.3356   22.0894   46.7230 C   0  0
   67.4721   21.1710   47.7293 C   0  0
   66.9310   20.1305   48.4097 O   0  0
   67.7695   19.7880   49.4476 C   0  0
   68.9292   20.5367   49.2923 C   0  0
   68.7329   21.4317   48.2125 C   0  0
   67.3478   18.8048   50.3780 C   0  0
   67.6982   18.7018   51.6651 C   0  0
   68.5985   19.5115   52.5289 C   0  0
   68.3111   19.0291   53.8194 N   0  0
   67.4108   17.9712   53.8464 N   0  0
   67.0683   17.7500   52.6072 C   0  0
   69.3979   20.3556   52.1712 O   0  0
   68.8248   19.4991   55.0540 C   0  0
   68.3940   18.9178   56.2594 C   0  0
   68.8480   19.3894   57.4914 C   0  0
   69.7450   20.4505   57.5343 C   0  0
   70.2020   21.0275   56.3558 C   0  0
   69.7408   20.5568   55.1233 C   0  0
   66.1568   16.6711   52.2234 C   0  0
   67.4918   22.2901   42.7395 Cl  0  0
   64.5285   22.0788   48.0124 C   0  0
   65.1198   22.3230   49.1110 O   0  0
   63.2752   21.8844   47.8683 O   0  5
   64.9142   16.5836   52.8576 C   0  0
   64.0432   15.5469   52.5257 C   0  0
   64.4253   14.5934   51.5817 C   0  0
   65.6750   14.6707   50.9652 C   0  0
   66.5474   15.7093   51.2868 C   0  0
   63.6334   22.8419   45.6206 H   0  0
   64.7934   22.9573   43.4437 H   0  0
   68.3759   21.4753   45.2886 H   0  0
   69.8160   20.4781   49.9041 H   0  0
   69.4134   22.1839   47.8394 H   0  0
   66.5573   18.1692   49.9887 H   0  0
   67.6732   18.1038   56.2425 H   0  0
   68.4906   18.9369   58.4123 H   0  0
   70.0841   20.8372   58.4882 H   0  0
   70.8994   21.8600   56.3867 H   0  0
   70.1064   21.0519   54.2288 H   0  0
   64.6203   17.3225   53.6000 H   0  0
   63.0668   15.4793   53.0005 H   0  0
   63.7446   13.7843   51.3295 H   0  0
   65.9663   13.9213   50.2332 H   0  0
   67.5247   15.7536   50.8137 H   0  0
  1  2  2  0
  1  6  1  0
  1 35  1  0
  2  3  1  0
  2 36  1  0
  3  4  2  0
  3 26  1  0
  4  5  1  0
  4 37  1  0
  5  6  2  0
  5  7  1  0
  6 27  1  0
  7  8  1  0
  7 11  2  0
  8  9  1  0
  9 10  2  0
  9 12  1  0
 10 11  1  0
 10 38  1  0
 11 39  1  0
 12 13  2  0
 12 40  1  0
 13 14  1  0
 13 17  1  0
 14 15  1  0
 14 18  2  0
 15 16  1  0
 15 19  1  0
 16 17  2  0
 17 25  1  0
 19 20  2  0
 19 24  1  0
 20 21  1  0
 20 41  1  0
 21 22  2  0
 21 42  1  0
 22 23  1  0
 22 43  1  0
 23 24  2  0
 23 44  1  0
 24 45  1  0
 25 30  2  0
 25 34  1  0
 27 28  2  0
 27 29  1  0
 30 31  1  0
 30 46  1  0
 31 32  2  0
 31 47  1  0
 32 33  1  0
 32 48  1  0
 33 34  2  0
 33 49  1  0
 34 50  1  0
M  CHG  1  29  -1
M  END
> <Name>
ligand_117

> <IC50 (nM)>
16400

$$$$
ligand_74
  SciTegic07132122123D

 38 40  0  0  0  0            999 V2000
   70.3534   20.5431   54.9214 C   0  0
   70.2293   21.6484   55.6712 C   0  0
   70.6471   20.4232   53.5565 N   0  3
   70.9062   19.2803   53.1666 O   0  5
   70.5832   21.4421   52.8626 O   0  0
   69.7703   21.3303   56.9397 N   0  0
   69.5893   19.9426   56.9807 O   0  3
   69.9135   19.4934   55.8060 C   0  0
   70.5105   23.0756   55.3344 C   0  0
   69.3027   17.2376   56.3629 C   0  0
   68.5275   17.5409   57.2658 O   0  0
   69.8413   18.1861   55.5136 N   0  0
   69.6790   15.8591   56.0543 C   0  0
   69.2776   14.6992   56.6888 C   0  0
   69.9380   13.5306   56.1801 C   0  0
   70.7799   15.5019   54.7953 S   0  0
   70.8272   13.8223   55.1654 C   0  0
   71.7543   12.9687   54.4643 C   0  0
   72.9599   13.3396   53.9031 C   0  0
   73.5130   12.1789   53.3141 C   0  0
   72.7199   11.1132   53.5358 N   0  0
   71.6470   11.6206   54.1898 N   0  0
   70.5295   10.7446   54.4538 C   0  0
   74.8052   12.1571   52.5483 C   0  0
   75.8179   11.5598   53.2371 F   0  0
   74.7213   11.5089   51.3520 F   0  0
   75.2226   13.4297   52.2756 F   0  0
   70.9631   23.5862   56.1918 H   0  0
   69.5820   23.5960   55.0803 H   0  0
   71.2129   23.1816   54.5037 H   0  0
   70.2555   17.8479   54.6490 H   0  0
   68.5719   14.6863   57.5137 H   0  0
   69.7896   12.5398   56.5939 H   0  0
   73.4030   14.3268   53.8962 H   0  0
   70.5975    9.8656   53.8067 H   0  0
   69.5994   11.2756   54.2392 H   0  0
   70.5757   10.4398   55.5017 H   0  0
   69.5806   22.0096   57.6820 H   0  0
  1  2  2  0
  1  3  1  0
  1  8  1  0
  2  6  1  0
  2  9  1  0
  3  4  1  0
  3  5  2  0
  6  7  1  0
  6 38  1  0
  7  8  2  0
  8 12  1  0
  9 28  1  0
  9 29  1  0
  9 30  1  0
 10 11  2  0
 10 12  1  0
 10 13  1  0
 12 31  1  0
 13 14  2  0
 13 16  1  0
 14 15  1  0
 14 32  1  0
 15 17  2  0
 15 33  1  0
 16 17  1  0
 17 18  1  0
 18 19  2  0
 18 22  1  0
 19 20  1  0
 19 34  1  0
 20 21  2  0
 20 24  1  0
 21 22  1  0
 22 23  1  0
 23 35  1  0
 23 36  1  0
 23 37  1  0
 24 25  1  0
 24 26  1  0
 24 27  1  0
M  CHG  3   3   1   4  -1   7   1
M  END
> <Name>
ligand_74

> <IC50 (nM)>
5000

$$$$
ligand_45
  SciTegic07132122123D

 48 50  0  0  0  0            999 V2000
   67.1955   21.1954   48.4043 C   0  0
   66.8806   20.8070   47.1010 C   0  0
   66.0168   21.5768   46.3101 C   0  0
   65.4581   22.7568   46.8134 C   0  0
   65.7843   23.1632   48.1110 C   0  0
   66.6407   22.3826   48.9002 C   0  0
   64.5151   23.5823   45.9997 C   0  0
   63.8932   22.9574   44.7753 C   0  0
   64.2454   24.7443   46.3031 O   0  0
   68.0162   20.4421   49.2666 N   0  0
   68.7434   19.2973   48.9694 C   0  0
   68.8726   18.8021   47.8501 O   0  0
   69.2999   18.5973   50.2008 C   0  0
   70.1621   19.7563   51.3055 S   0  0
   70.1126   18.8303   52.7893 C   0  0
   71.2144   18.4112   54.7324 C   0  0
   70.0737   17.5236   55.1117 C   0  0
   69.0883   17.3891   54.2097 C   0  0
   69.1156   18.0454   53.0100 N   0  0
   71.1508   19.0697   53.5700 N   0  5
   72.1595   18.5069   55.5173 O   0  0
   70.0688   16.8974   56.3860 C   0  0
   70.0127   16.3395   57.4061 N   0  0
   67.8582   16.5861   54.4268 C   0  0
   65.4295   16.4728   54.3556 C   0  0
   66.6101   17.2021   54.2376 C   0  0
   67.9019   15.2158   54.7231 C   0  0
   66.7196   14.4839   54.8627 C   0  0
   65.4883   15.1167   54.6688 C   0  0
   66.6374   13.1497   55.1588 O   0  0
   67.8344   12.5300   55.6176 C   0  0
   67.2804   19.8913   46.6763 H   0  0
   65.8036   21.2292   45.3027 H   0  0
   65.3691   24.0822   48.5200 H   0  0
   66.8642   22.7056   49.9154 H   0  0
   63.0479   23.5721   44.4506 H   0  0
   63.5045   21.9614   45.0040 H   0  0
   64.6232   22.9138   43.9640 H   0  0
   68.1377   20.7801   50.2188 H   0  0
   70.0024   17.8188   49.8856 H   0  0
   68.4437   18.1228   50.6897 H   0  0
   64.4731   16.9613   54.1951 H   0  0
   66.5650   18.2574   53.9708 H   0  0
   68.8709   14.7360   54.8125 H   0  0
   64.5691   14.5446   54.7610 H   0  0
   67.5833   11.5115   55.9307 H   0  0
   68.2484   13.0542   56.4859 H   0  0
   68.5704   12.4572   54.8104 H   0  0
  1  2  2  0
  1  6  1  0
  1 10  1  0
  2  3  1  0
  2 32  1  0
  3  4  2  0
  3 33  1  0
  4  5  1  0
  4  7  1  0
  5  6  2  0
  5 34  1  0
  6 35  1  0
  7  8  1  0
  7  9  2  0
  8 36  1  0
  8 37  1  0
  8 38  1  0
 10 11  1  0
 10 39  1  0
 11 12  2  0
 11 13  1  0
 13 14  1  0
 13 40  1  0
 13 41  1  0
 14 15  1  0
 15 19  2  0
 15 20  1  0
 16 17  1  0
 16 20  1  0
 16 21  2  0
 17 18  2  0
 17 22  1  0
 18 19  1  0
 18 24  1  0
 22 23  3  0
 24 26  2  0
 24 27  1  0
 25 26  1  0
 25 29  2  0
 25 42  1  0
 26 43  1  0
 27 28  2  0
 27 44  1  0
 28 29  1  0
 28 30  1  0
 29 45  1  0
 30 31  1  0
 31 46  1  0
 31 47  1  0
 31 48  1  0
M  CHG  1  20  -1
M  END
> <Name>
ligand_45

> <IC50 (nM)>
60000

$$$$
ligand_122
  SciTegic07132122123D

 50 54  0  0  0  0            999 V2000
   74.5162   12.1298   59.0407 C   0  0
   74.4696   11.1642   58.0379 C   0  0
   73.5602   11.3151   57.0018 C   0  0
   72.6942   12.4157   56.9873 C   0  0
   72.7040   13.4045   58.0017 C   0  0
   73.6565   13.2617   59.0444 C   0  0
   71.6717   14.4582   57.9267 C   0  0
   71.1110   14.6949   56.6874 O   0  0
   70.1752   15.7130   56.7826 C   0  0
   70.0998   16.0513   58.1280 C   0  0
   71.0477   15.2756   58.8416 C   0  0
   69.4444   16.1901   55.6442 C   0  0
   69.2289   17.4807   55.3331 C   0  0
   69.7693   18.6813   56.0239 C   0  0
   69.5638   19.7063   55.0875 N   0  0
   68.8148   19.3308   53.9727 N   0  0
   68.5733   18.0496   54.1178 C   0  0
   70.2607   18.7243   57.1342 O   0  0
   70.0636   21.0289   55.1660 C   0  0
   69.8426   21.9311   54.1164 C   0  0
   70.3941   23.2138   54.1509 C   0  0
   71.1599   23.6233   55.2382 C   0  0
   71.3710   22.7536   56.2956 C   0  0
   70.8280   21.4675   56.2573 C   0  0
   67.7156   17.3178   53.1703 C   0  0
   73.8682   14.2444   60.1828 C   0  0
   74.1124   13.7305   61.3287 O   0  0
   73.8504   15.4870   59.9204 O   0  5
   67.7202   17.7149   51.8234 C   0  0
   66.8376   17.1349   50.9063 C   0  0
   65.9424   16.1580   51.3348 C   0  0
   65.9290   15.7633   52.6746 C   0  0
   66.8034   16.3490   53.5946 C   0  0
   75.2377   12.0260   59.8517 H   0  0
   75.1439   10.3131   58.0718 H   0  0
   73.5106   10.5785   56.2064 H   0  0
   71.9806   12.4954   56.1696 H   0  0
   69.4521   16.8019   58.5579 H   0  0
   71.2634   15.3153   59.9022 H   0  0
   69.1308   15.4119   54.9567 H   0  0
   69.2553   21.6422   53.2475 H   0  0
   70.2322   23.8905   53.3193 H   0  0
   71.5918   24.6195   55.2568 H   0  0
   71.9755   23.0420   57.1524 H   0  0
   71.0407   20.8234   57.1052 H   0  0
   68.4019   18.4934   51.4845 H   0  0
   66.8446   17.4494   49.8652 H   0  0
   65.2512   15.7086   50.6265 H   0  0
   65.2261   15.0052   53.0111 H   0  0
   66.7328   16.0621   54.6409 H   0  0
  1  2  2  0
  1  6  1  0
  1 34  1  0
  2  3  1  0
  2 35  1  0
  3  4  2  0
  3 36  1  0
  4  5  1  0
  4 37  1  0
  5  6  2  0
  5  7  1  0
  6 26  1  0
  7  8  1  0
  7 11  2  0
  8  9  1  0
  9 10  2  0
  9 12  1  0
 10 11  1  0
 10 38  1  0
 11 39  1  0
 12 13  2  0
 12 40  1  0
 13 14  1  0
 13 17  1  0
 14 15  1  0
 14 18  2  0
 15 16  1  0
 15 19  1  0
 16 17  2  0
 17 25  1  0
 19 20  2  0
 19 24  1  0
 20 21  1  0
 20 41  1  0
 21 22  2  0
 21 42  1  0
 22 23  1  0
 22 43  1  0
 23 24  2  0
 23 44  1  0
 24 45  1  0
 25 29  2  0
 25 33  1  0
 26 27  2  0
 26 28  1  0
 29 30  1  0
 29 46  1  0
 30 31  2  0
 30 47  1  0
 31 32  1  0
 31 48  1  0
 32 33  2  0
 32 49  1  0
 33 50  1  0
M  CHG  1  28  -1
M  END
> <Name>
ligand_122

> <IC50 (nM)>
41200

$$$$
ligand_121
  SciTegic07132122123D

 50 54  0  0  0  0            999 V2000
   70.4256   20.7149   55.4325 C   0  0
   69.3878   21.4033   56.0575 C   0  0
   68.2811   21.8033   55.3095 C   0  0
   68.2133   21.5145   53.9425 C   0  0
   69.2471   20.8218   53.2944 C   0  0
   70.3544   20.4261   54.0632 C   0  0
   69.1669   20.5203   51.8632 C   0  0
   68.0670   20.9933   51.2061 O   0  0
   68.1275   20.6321   49.8651 C   0  0
   69.2964   19.9000   49.7159 C   0  0
   69.9591   19.8406   50.9694 C   0  0
   67.0732   21.0175   48.9868 C   0  0
   66.9665   20.8889   47.6552 C   0  0
   67.8529   20.3437   46.5850 C   0  0
   67.0930   20.5179   45.4140 N   0  0
   65.8484   21.1288   45.6264 N   0  0
   65.7662   21.3456   46.9076 C   0  0
   68.9642   19.8860   46.7593 O   0  0
   67.4398   20.1550   44.0803 C   0  0
   66.5373   20.4455   43.0424 C   0  0
   66.8219   20.1148   41.7191 C   0  0
   68.0189   19.4794   41.4063 C   0  0
   68.9536   19.1618   42.4027 C   0  0
   68.6468   19.5109   43.7414 C   0  0
   64.6125   21.9745   47.5558 C   0  0
   64.5633   23.3670   47.6750 C   0  0
   63.4896   23.9608   48.3387 C   0  0
   62.4744   23.1626   48.8691 C   0  0
   62.5222   21.7731   48.7428 C   0  0
   63.5937   21.1731   48.0815 C   0  0
   70.2544   18.4590   42.0189 C   0  0
   70.4390   18.1844   40.7841 O   0  5
   71.0728   18.1904   42.9557 O   0  0
   71.2924   20.4015   56.0083 H   0  0
   69.4449   21.6258   57.1220 H   0  0
   67.4642   22.3415   55.7823 H   0  0
   67.3422   21.8334   53.3726 H   0  0
   71.1783   19.8880   53.5964 H   0  0
   69.6627   19.4384   48.8114 H   0  0
   70.8986   19.3449   51.1671 H   0  0
   66.2531   21.4886   49.5203 H   0  0
   65.5929   20.9391   43.2534 H   0  0
   66.1135   20.3509   40.9322 H   0  0
   68.2408   19.2204   40.3729 H   0  0
   69.3833   19.2588   44.5030 H   0  0
   65.3488   23.9842   47.2449 H   0  0
   63.4351   25.0429   48.4412 H   0  0
   61.6341   23.6281   49.3778 H   0  0
   61.7195   21.1650   49.1554 H   0  0
   63.6287   20.0924   47.9650 H   0  0
  1  2  2  0
  1  6  1  0
  1 34  1  0
  2  3  1  0
  2 35  1  0
  3  4  2  0
  3 36  1  0
  4  5  1  0
  4 37  1  0
  5  6  2  0
  5  7  1  0
  6 38  1  0
  7  8  1  0
  7 11  2  0
  8  9  1  0
  9 10  2  0
  9 12  1  0
 10 11  1  0
 10 39  1  0
 11 40  1  0
 12 13  2  0
 12 41  1  0
 13 14  1  0
 13 17  1  0
 14 15  1  0
 14 18  2  0
 15 16  1  0
 15 19  1  0
 16 17  2  0
 17 25  1  0
 19 20  2  0
 19 24  1  0
 20 21  1  0
 20 42  1  0
 21 22  2  0
 21 43  1  0
 22 23  1  0
 22 44  1  0
 23 24  2  0
 23 31  1  0
 24 45  1  0
 25 26  2  0
 25 30  1  0
 26 27  1  0
 26 46  1  0
 27 28  2  0
 27 47  1  0
 28 29  1  0
 28 48  1  0
 29 30  2  0
 29 49  1  0
 30 50  1  0
 31 32  1  0
 31 33  2  0
M  CHG  1  32  -1
M  END
> <Name>
ligand_121

> <IC50 (nM)>
6400

$$$$
ligand_82
  SciTegic07132122123D

 50 53  0  0  0  0            999 V2000
   71.0957   18.1279   43.5787 C   0  0
   71.2390   19.6402   43.7227 C   0  0
   70.1399   20.2300   44.6046 C   0  0
   68.7429   19.8421   44.0967 C   0  0
   68.6072   18.3181   43.9572 C   0  0
   69.7097   17.7396   43.0728 C   0  0
   67.6599   20.4008   44.9932 C   0  0
   66.6595   20.5279   47.0504 C   0  0
   67.6358   20.0151   46.2759 N   0  0
   66.7782   21.2469   44.4407 N   0  0
   65.6852   21.4221   46.5737 C   0  0
   65.8128   21.7458   45.2187 C   0  0
   64.8975   22.6239   44.6486 C   0  0
   63.8564   23.1936   45.3859 C   0  0
   63.7201   22.8815   46.7304 C   0  0
   64.6249   22.0026   47.3240 C   0  0
   66.6528   19.9585   48.7533 S   0  0
   68.3090   19.2004   48.8582 C   0  0
   68.5113   18.6637   50.2636 C   0  0
   69.1090   19.2932   51.1327 O   0  0
   67.9603   17.4189   50.4751 N   0  0
   67.9206   16.8021   51.7821 C   0  0
   66.5619   17.0335   52.3307 C   0  0
   64.6571   17.6850   53.3057 C   0  0
   66.0413   17.9618   53.2081 C   0  0
   64.4228   16.6010   52.4930 C   0  0
   65.5702   16.2088   51.8812 O   0  0
   71.8591   17.7495   42.8898 H   0  0
   71.2763   17.6504   44.5496 H   0  0
   72.2206   19.8784   44.1480 H   0  0
   71.1991   20.1066   42.7308 H   0  0
   70.2419   21.3220   44.6313 H   0  0
   70.2840   19.8786   45.6349 H   0  0
   68.6145   20.2844   43.0987 H   0  0
   67.6283   18.0634   43.5325 H   0  0
   68.6531   17.8387   44.9440 H   0  0
   69.6219   16.6478   43.0405 H   0  0
   69.5806   18.1019   42.0454 H   0  0
   64.9969   22.8763   43.5937 H   0  0
   63.1613   23.8779   44.9038 H   0  0
   62.9164   23.3187   47.3178 H   0  0
   64.5022   21.7715   48.3802 H   0  0
   68.4024   18.3763   48.1432 H   0  0
   69.0860   19.9428   48.6500 H   0  0
   67.3863   17.0031   49.7529 H   0  0
   68.1130   15.7327   51.6528 H   0  0
   68.6898   17.2233   52.4365 H   0  0
   63.9216   18.2044   53.9031 H   0  0
   66.5979   18.7425   53.7092 H   0  0
   63.5420   16.0209   52.2538 H   0  0
  1  2  1  0
  1  6  1  0
  1 28  1  0
  1 29  1  0
  2  3  1  0
  2 30  1  0
  2 31  1  0
  3  4  1  0
  3 32  1  0
  3 33  1  0
  4  5  1  0
  4  7  1  0
  4 34  1  0
  5  6  1  0
  5 35  1  0
  5 36  1  0
  6 37  1  0
  6 38  1  0
  7  9  2  0
  7 10  1  0
  8  9  1  0
  8 11  2  0
  8 17  1  0
 10 12  2  0
 11 12  1  0
 11 16  1  0
 12 13  1  0
 13 14  2  0
 13 39  1  0
 14 15  1  0
 14 40  1  0
 15 16  2  0
 15 41  1  0
 16 42  1  0
 17 18  1  0
 18 19  1  0
 18 43  1  0
 18 44  1  0
 19 20  2  0
 19 21  1  0
 21 22  1  0
 21 45  1  0
 22 23  1  0
 22 46  1  0
 22 47  1  0
 23 25  2  0
 23 27  1  0
 24 25  1  0
 24 26  2  0
 24 48  1  0
 25 49  1  0
 26 27  1  0
 26 50  1  0
M  END
> <Name>
ligand_82

> <IC50 (nM)>
18200

$$$$
ligand_5
  SciTegic07132122123D

 56 58  0  0  0  0            999 V2000
   67.3504   20.5459   48.9798 C   0  0
   67.2099   19.3575   49.2584 O   0  0
   68.5462   21.2055   49.1459 N   0  0
   69.7421   20.5035   49.6123 C   0  0  1  0  0  0
   71.0307   21.2827   49.3128 C   0  0
   71.3829   21.2209   47.8445 C   0  0
   71.5308   22.2485   45.6580 C   0  0
   71.2352   22.3398   47.0187 C   0  0
   71.8365   20.0141   47.2899 C   0  0
   72.1172   19.9255   45.9297 C   0  0
   71.9724   21.0443   45.1140 C   0  0
   69.6088   20.2750   51.1256 C   0  0
   69.9747   21.1032   51.9546 O   0  0
   68.8988   19.1200   51.4066 N   0  0
   68.7679   18.4964   52.6584 C   0  0
   69.7657   18.4332   53.6475 C   0  0
   67.5409   17.8488   52.8787 C   0  0
   67.2813   17.1988   54.0863 C   0  0
   68.2659   17.1842   55.0769 C   0  0
   69.5068   17.7927   54.8637 C   0  0
   71.4084   18.9205   53.3918 Cl  0  0
   68.0158   16.4894   56.3411 N   0  3
   68.7805   16.7203   57.2891 O   0  0
   67.0557   15.7060   56.3958 O   0  5
   66.2196   21.3389   48.4377 C   0  0
   66.0942   22.7099   48.6596 C   0  0
   65.0070   23.4093   48.1181 C   0  0
   64.0076   22.7739   47.3578 C   0  0
   64.1597   21.3877   47.1714 C   0  0
   65.2415   20.6760   47.7009 C   0  0
   62.9300   23.4714   46.8299 N   0  0
   62.7580   24.9025   47.0626 C   0  0
   61.8715   22.7854   46.0964 C   0  0
   68.6440   22.1698   48.8612 H   0  0
   69.7700   19.5209   49.1232 H   0  0
   70.9351   22.3281   49.6342 H   0  0
   71.8719   20.8673   49.8836 H   0  0
   71.4210   23.1225   45.0226 H   0  0
   70.9042   23.2986   47.4117 H   0  0
   71.9808   19.1350   47.9192 H   0  0
   72.4715   18.9911   45.5016 H   0  0
   72.2251   20.9768   44.0585 H   0  0
   68.2377   18.8485   50.6723 H   0  0
   66.7623   17.8664   52.1167 H   0  0
   66.3170   16.7178   54.2334 H   0  0
   70.2902   17.7414   55.6170 H   0  0
   66.8044   23.2414   49.2864 H   0  0
   64.9547   24.4791   48.3080 H   0  0
   63.4312   20.8212   46.5978 H   0  0
   65.3128   19.6019   47.5426 H   0  0
   61.8682   25.2971   46.5602 H   0  0
   63.6134   25.4659   46.6737 H   0  0
   62.6410   25.1102   48.1318 H   0  0
   61.0981   23.4779   45.7465 H   0  0
   61.3727   22.0466   46.7333 H   0  0
   62.2726   22.2880   45.2064 H   0  0
  1  2  2  0
  1  3  1  0
  1 25  1  0
  3  4  1  0
  3 34  1  0
  4  5  1  0
  4 12  1  0
  4 35  1  0
  5  6  1  0
  5 36  1  0
  5 37  1  0
  6  8  2  0
  6  9  1  0
  7  8  1  0
  7 11  2  0
  7 38  1  0
  8 39  1  0
  9 10  2  0
  9 40  1  0
 10 11  1  0
 10 41  1  0
 11 42  1  0
 12 13  2  0
 12 14  1  0
 14 15  1  0
 14 43  1  0
 15 16  2  0
 15 17  1  0
 16 20  1  0
 16 21  1  0
 17 18  2  0
 17 44  1  0
 18 19  1  0
 18 45  1  0
 19 20  2  0
 19 22  1  0
 20 46  1  0
 22 23  2  0
 22 24  1  0
 25 26  1  0
 25 30  2  0
 26 27  2  0
 26 47  1  0
 27 28  1  0
 27 48  1  0
 28 29  2  0
 28 31  1  0
 29 30  1  0
 29 49  1  0
 30 50  1  0
 31 32  1  0
 31 33  1  0
 32 51  1  0
 32 52  1  0
 32 53  1  0
 33 54  1  0
 33 55  1  0
 33 56  1  0
M  CHG  2  22   1  24  -1
M  END
> <Name>
ligand_5

> <IC50 (nM)>
60

$$$$
ligand_126
  SciTegic07132122123D

 51 55  0  0  0  0            999 V2000
   71.5326   14.7779   60.1832 C   0  0
   72.8416   14.5696   60.6152 C   0  0
   73.7596   13.9690   59.7605 C   0  0
   73.3733   13.5948   58.4707 C   0  0
   72.0612   13.8139   58.0111 C   0  0
   71.1192   14.3844   58.8945 C   0  0
   71.7293   13.4480   56.6397 C   0  0
   70.8464   14.2622   56.0156 O   0  0
   70.5051   13.7212   54.8071 C   0  0
   71.2988   12.6000   54.6130 C   0  0
   72.1031   12.4449   55.7741 C   0  0
   69.4118   14.2223   54.0615 C   0  0
   69.1588   15.5331   53.9757 C   0  0
   70.0414   16.6914   54.2655 C   0  0
   69.1786   17.7876   54.0676 N   0  0
   67.9116   17.4454   53.5865 N   0  0
   67.8818   16.1408   53.5610 C   0  0
   71.2404   16.6648   54.4790 O   0  0
   69.4521   19.1501   54.3378 C   0  0
   70.6662   19.5647   54.9028 C   0  0
   70.9053   20.9134   55.1954 C   0  0
   69.9269   21.8715   54.9325 C   0  0
   68.7102   21.4733   54.3778 C   0  0
   68.4779   20.1265   54.0817 C   0  0
   66.6948   15.3604   53.2179 C   0  0
   69.6605   14.5514   58.5421 C   0  0
   69.1806   15.7275   58.6073 O   0  0
   69.0045   13.4844   58.2982 O   0  5
   66.0872   14.5733   54.2025 C   0  0
   64.9526   13.8338   53.8803 C   0  0
   64.4307   13.8895   52.5861 C   0  0
   65.0343   14.6836   51.6087 C   0  0
   66.1670   15.4318   51.9258 C   0  0
   70.1676   23.2544   55.2140 C   0  0
   70.3557   24.3895   55.3917 N   0  0
   70.8032   15.2524   60.8381 H   0  0
   73.1351   14.8662   61.6176 H   0  0
   74.7769   13.7891   60.0932 H   0  0
   74.1086   13.1305   57.8178 H   0  0
   71.2611   11.9314   53.7642 H   0  0
   72.8014   11.6499   55.9889 H   0  0
   68.6823   13.4915   53.7395 H   0  0
   71.4454   18.8489   55.1535 H   0  0
   71.8577   21.1954   55.6399 H   0  0
   67.9285   22.2010   54.1764 H   0  0
   67.5153   19.8453   53.6591 H   0  0
   66.4867   14.5519   55.2176 H   0  0
   64.4734   13.2112   54.6344 H   0  0
   63.5462   13.3072   52.3404 H   0  0
   64.6153   14.7103   50.6055 H   0  0
   66.6394   16.0628   51.1783 H   0  0
  1  2  2  0
  1  6  1  0
  1 36  1  0
  2  3  1  0
  2 37  1  0
  3  4  2  0
  3 38  1  0
  4  5  1  0
  4 39  1  0
  5  6  2  0
  5  7  1  0
  6 26  1  0
  7  8  1  0
  7 11  2  0
  8  9  1  0
  9 10  2  0
  9 12  1  0
 10 11  1  0
 10 40  1  0
 11 41  1  0
 12 13  2  0
 12 42  1  0
 13 14  1  0
 13 17  1  0
 14 15  1  0
 14 18  2  0
 15 16  1  0
 15 19  1  0
 16 17  2  0
 17 25  1  0
 19 20  2  0
 19 24  1  0
 20 21  1  0
 20 43  1  0
 21 22  2  0
 21 44  1  0
 22 23  1  0
 22 34  1  0
 23 24  2  0
 23 45  1  0
 24 46  1  0
 25 29  2  0
 25 33  1  0
 26 27  2  0
 26 28  1  0
 29 30  1  0
 29 47  1  0
 30 31  2  0
 30 48  1  0
 31 32  1  0
 31 49  1  0
 32 33  2  0
 32 50  1  0
 33 51  1  0
 34 35  3  0
M  CHG  1  28  -1
M  END
> <Name>
ligand_126

> <IC50 (nM)>
18700

$$$$
ligand_123
  SciTegic07132122123D

 50 54  0  0  0  0            999 V2000
   73.8801   10.9133   58.8824 C   0  0
   73.8159   10.2050   57.6872 C   0  0
   73.2532   10.8142   56.5789 C   0  0
   72.7520   12.1179   56.6800 C   0  0
   72.7905   12.8722   57.8831 C   0  0
   73.3861   12.2442   59.0054 C   0  0
   72.1777   14.2223   57.8493 C   0  0
   71.4707   14.5204   56.7034 O   0  0
   70.9434   15.8010   56.7611 C   0  0
   71.3222   16.3104   57.9930 C   0  0
   72.0912   15.3204   58.6752 C   0  0
   70.1278   16.2763   55.6862 C   0  0
   69.7660   17.5264   55.3494 C   0  0
   70.1721   18.8553   55.8802 C   0  0
   69.5628   19.7679   54.9892 N   0  0
   68.7943   19.1699   53.9896 N   0  0
   68.8756   17.8783   54.2009 C   0  0
   70.8834   19.0533   56.8462 O   0  0
   69.6540   21.1864   55.0176 C   0  0
   68.9786   21.9642   54.0570 C   0  0
   69.0632   23.3617   54.0686 C   0  0
   69.8221   23.9992   55.0412 C   0  0
   70.4967   23.2569   56.0005 C   0  0
   70.4140   21.8581   55.9884 C   0  0
   68.1559   16.8887   53.3810 C   0  0
   73.5822   12.8561   60.3720 C   0  0
   74.1870   13.9704   60.4513 O   0  0
   73.2384   12.1381   61.3733 O   0  5
   67.4183   15.8547   53.9683 C   0  0
   66.7762   14.9077   53.1654 C   0  0
   66.8376   15.0130   51.7767 C   0  0
   67.5400   16.0674   51.1891 C   0  0
   68.1955   17.0086   51.9879 C   0  0
   69.9044   25.3374   55.0532 F   0  0
   74.3245   10.4398   59.7599 H   0  0
   74.2048    9.1934   57.6323 H   0  0
   73.1954   10.2822   55.6344 H   0  0
   72.3166   12.5536   55.7827 H   0  0
   71.0673   17.2785   58.3977 H   0  0
   72.5296   15.4212   59.6594 H   0  0
   69.7900   15.4566   55.0591 H   0  0
   68.3805   21.4816   53.2878 H   0  0
   68.5403   23.9511   53.3226 H   0  0
   71.0913   23.7571   56.7589 H   0  0
   70.9612   21.3125   56.7561 H   0  0
   67.3380   15.7663   55.0495 H   0  0
   66.2534   14.0798   53.6412 H   0  0
   66.3406   14.2745   51.1504 H   0  0
   67.5877   16.1497   50.1062 H   0  0
   68.7540   17.8186   51.5245 H   0  0
  1  2  2  0
  1  6  1  0
  1 35  1  0
  2  3  1  0
  2 36  1  0
  3  4  2  0
  3 37  1  0
  4  5  1  0
  4 38  1  0
  5  6  2  0
  5  7  1  0
  6 26  1  0
  7  8  1  0
  7 11  2  0
  8  9  1  0
  9 10  2  0
  9 12  1  0
 10 11  1  0
 10 39  1  0
 11 40  1  0
 12 13  2  0
 12 41  1  0
 13 14  1  0
 13 17  1  0
 14 15  1  0
 14 18  2  0
 15 16  1  0
 15 19  1  0
 16 17  2  0
 17 25  1  0
 19 20  2  0
 19 24  1  0
 20 21  1  0
 20 42  1  0
 21 22  2  0
 21 43  1  0
 22 23  1  0
 22 34  1  0
 23 24  2  0
 23 44  1  0
 24 45  1  0
 25 29  2  0
 25 33  1  0
 26 27  2  0
 26 28  1  0
 29 30  1  0
 29 46  1  0
 30 31  2  0
 30 47  1  0
 31 32  1  0
 31 48  1  0
 32 33  2  0
 32 49  1  0
 33 50  1  0
M  CHG  1  28  -1
M  END
> <Name>
ligand_123

> <IC50 (nM)>
37500

$$$$
ligand_46
  SciTegic07132122123D

 54 56  0  0  0  0            999 V2000
   67.1502   21.1574   48.2433 C   0  0
   66.9335   21.7522   46.9917 C   0  0
   67.7077   21.3476   45.9002 C   0  0
   68.6866   20.3676   46.0520 C   0  0
   68.8966   19.7854   47.3015 C   0  0
   68.1284   20.1701   48.4076 C   0  0
   65.8980   22.8112   46.7868 C   0  0
   65.0811   23.2633   47.9707 C   0  0
   65.7135   23.3064   45.6720 O   0  0
   68.3993   19.5340   49.6348 N   0  0
   67.7154   19.6608   50.8409 C   0  0
   66.7127   20.3552   51.0070 O   0  0
   68.3864   18.8808   51.9876 C   0  0  1  0  0  0
   67.7072   19.1060   53.3456 C   0  0
   68.0164   20.4843   53.9214 C   0  0
   68.3258   17.0866   51.5630 S   0  0
   69.7017   16.5329   52.4916 C   0  0
   71.9321   16.8205   52.7671 C   0  0
   70.6440   15.3288   54.1657 C   0  0
   71.8580   15.8441   53.8955 C   0  0
   69.5155   15.7280   53.4845 N   0  0
   70.8406   17.0193   52.0311 N   0  5
   72.9972   17.3939   52.5436 O   0  0
   73.0347   15.5432   54.6392 C   0  0
   73.9632   15.2627   55.2837 N   0  0
   70.4331   14.3526   55.2662 C   0  0
   71.0474   13.0896   55.2626 C   0  0
   69.5975   14.6855   56.3384 C   0  0
   69.4100   13.7923   57.3960 C   0  0
   70.0523   12.5493   57.3978 C   0  0
   70.8715   12.1929   56.3257 C   0  0
   71.5446   11.0067   56.1953 O   0  0
   71.5272   10.1269   57.3140 C   0  0
   66.5592   21.4684   49.0957 H   0  0
   67.5521   21.7953   44.9229 H   0  0
   69.2783   20.0635   45.1913 H   0  0
   69.6641   19.0206   47.4038 H   0  0
   64.3878   24.0473   47.6497 H   0  0
   65.7305   23.6847   48.7424 H   0  0
   64.4910   22.4317   48.3644 H   0  0
   69.1479   18.8418   49.6474 H   0  0
   69.4273   19.2206   52.0318 H   0  0
   66.6194   18.9910   53.2627 H   0  0
   68.0543   18.3664   54.0775 H   0  0
   67.5365   20.5987   54.8987 H   0  0
   67.6521   21.2866   53.2738 H   0  0
   69.0945   20.6166   54.0583 H   0  0
   71.6767   12.7978   54.4240 H   0  0
   69.0896   15.6482   56.3434 H   0  0
   68.7588   14.0698   58.2202 H   0  0
   69.8816   11.8845   58.2375 H   0  0
   72.1637    9.2695   57.0747 H   0  0
   70.5162    9.7502   57.4999 H   0  0
   71.9399   10.6108   58.2055 H   0  0
  1  2  2  0
  1  6  1  0
  1 34  1  0
  2  3  1  0
  2  7  1  0
  3  4  2  0
  3 35  1  0
  4  5  1  0
  4 36  1  0
  5  6  2  0
  5 37  1  0
  6 10  1  0
  7  8  1  0
  7  9  2  0
  8 38  1  0
  8 39  1  0
  8 40  1  0
 10 11  1  0
 10 41  1  0
 11 12  2  0
 11 13  1  0
 13 14  1  0
 13 16  1  0
 13 42  1  0
 14 15  1  0
 14 43  1  0
 14 44  1  0
 15 45  1  0
 15 46  1  0
 15 47  1  0
 16 17  1  0
 17 21  2  0
 17 22  1  0
 18 20  1  0
 18 22  1  0
 18 23  2  0
 19 20  2  0
 19 21  1  0
 19 26  1  0
 20 24  1  0
 24 25  3  0
 26 27  2  0
 26 28  1  0
 27 31  1  0
 27 48  1  0
 28 29  2  0
 28 49  1  0
 29 30  1  0
 29 50  1  0
 30 31  2  0
 30 51  1  0
 31 32  1  0
 32 33  1  0
 33 52  1  0
 33 53  1  0
 33 54  1  0
M  CHG  1  22  -1
M  END
> <Name>
ligand_46

> <IC50 (nM)>
60000

$$$$
ligand_47
  SciTegic07132122123D

 43 45  0  0  0  0            999 V2000
   68.1290   18.0064   51.8676 C   0  0
   67.2476   16.9434   51.6605 C   0  0
   67.0825   15.9712   52.6544 C   0  0
   67.7864   16.0421   53.8587 C   0  0
   68.6672   17.0960   54.0812 C   0  0
   68.8214   18.0748   53.0948 C   0  0
   66.0118   14.6441   52.4002 Cl  0  0
   68.3751   19.0324   50.9244 N   0  0
   69.7409   19.0795   53.3082 O   0  0
   69.3445   20.1489   54.0833 C   0  0
   68.7704   22.4062   55.6338 C   0  0
   70.0915   22.0109   55.4338 C   0  0
   70.3800   20.8823   54.6662 C   0  0
   68.0198   20.5551   54.2708 C   0  0
   67.7352   21.6808   55.0489 C   0  0
   67.8278   19.1928   49.6542 C   0  0
   66.9994   18.4488   49.1411 O   0  0
   68.4218   20.4171   48.9578 C   0  0
   67.9318   20.5904   47.2238 S   0  0
   66.3557   21.2973   47.3901 C   0  0
   64.5729   22.1816   46.0753 C   0  0
   63.9098   22.4448   47.3643 C   0  0
   64.5544   22.1247   48.4968 C   0  0
   65.8102   21.5609   48.5291 N   0  0
   65.7892   21.5745   46.1849 N   0  0
   64.0612   22.5015   45.0067 O   0  0
   63.9270   22.3640   49.8405 C   0  0
   66.6853   16.8437   50.7377 H   0  0
   67.6619   15.2740   54.6201 H   0  0
   69.2333   17.1471   55.0097 H   0  0
   69.0440   19.7301   51.2365 H   0  0
   68.5551   23.2713   56.2586 H   0  0
   70.9004   22.5721   55.8956 H   0  0
   71.4161   20.5690   54.5487 H   0  0
   67.1909   20.0202   53.8161 H   0  0
   66.7023   21.9937   55.1833 H   0  0
   69.5122   20.3066   48.9691 H   0  0
   68.1836   21.3196   49.5301 H   0  0
   62.9243   22.8877   47.3344 H   0  0
   66.2831   21.3594   45.3327 H   0  0
   64.5499   23.0413   50.4342 H   0  0
   63.8265   21.4193   50.3853 H   0  0
   62.9307   22.8110   49.7583 H   0  0
  1  2  2  0
  1  6  1  0
  1  8  1  0
  2  3  1  0
  2 28  1  0
  3  4  2  0
  3  7  1  0
  4  5  1  0
  4 29  1  0
  5  6  2  0
  5 30  1  0
  6  9  1  0
  8 16  1  0
  8 31  1  0
  9 10  1  0
 10 13  2  0
 10 14  1  0
 11 12  2  0
 11 15  1  0
 11 32  1  0
 12 13  1  0
 12 33  1  0
 13 34  1  0
 14 15  2  0
 14 35  1  0
 15 36  1  0
 16 17  2  0
 16 18  1  0
 18 19  1  0
 18 37  1  0
 18 38  1  0
 19 20  1  0
 20 24  2  0
 20 25  1  0
 21 22  1  0
 21 25  1  0
 21 26  2  0
 22 23  2  0
 22 39  1  0
 23 24  1  0
 23 27  1  0
 25 40  1  0
 27 41  1  0
 27 42  1  0
 27 43  1  0
M  END
> <Name>
ligand_47

> <IC50 (nM)>
100000

$$$$
ligand_44
  SciTegic07132122123D

 47 49  0  0  0  0            999 V2000
   68.8892   18.7901   53.5754 C   0  0
   68.6862   17.5165   54.1264 C   0  0
   69.2956   17.1371   55.3372 C   0  0
   70.1259   18.0260   56.0223 C   0  0
   70.3193   19.2992   55.4641 C   0  0
   69.7246   19.6730   54.2520 C   0  0
   70.7831   17.7557   57.1952 O   0  0
   70.5610   16.4888   57.8030 C   0  0
   71.1575   20.2242   56.0360 O   0  0
   70.5039   20.8786   57.1231 C   0  0
   68.2366   19.0990   52.3570 N   0  0
   68.2398   20.3197   51.6935 C   0  0
   68.7969   21.3478   52.0718 O   0  0
   67.4640   20.3118   50.3838 C   0  0
   68.6206   20.0094   49.0158 S   0  0
   67.7857   20.8179   47.7276 C   0  0
   66.7163   22.0855   45.5961 C   0  0
   68.1710   21.8779   45.6442 C   0  0
   66.5058   20.9678   47.7064 N   0  0
   68.6297   21.2466   46.7562 N   0  0
   68.8930   22.2491   44.7265 O   0  0
   65.9783   21.6349   46.6223 C   0  0
   64.5081   21.8207   46.5944 C   0  0
   62.2777   20.9078   46.9484 C   0  0
   61.7115   22.1262   46.5818 C   0  0
   62.5330   23.1964   46.2336 C   0  0
   63.9224   23.0470   46.2431 C   0  0
   63.6668   20.7581   46.9584 C   0  0
   68.0475   16.7980   53.6179 H   0  0
   69.1048   16.1368   55.7148 H   0  0
   69.9462   20.6634   53.8691 H   0  0
   71.1380   16.4573   58.7321 H   0  0
   70.9175   15.6776   57.1600 H   0  0
   69.5051   16.3549   58.0598 H   0  0
   71.1516   21.6940   57.4591 H   0  0
   70.3539   20.2000   57.9687 H   0  0
   69.5480   21.3147   56.8112 H   0  0
   67.7134   18.3444   51.9313 H   0  0
   66.6858   19.5429   50.3907 H   0  0
   66.9804   21.2899   50.2884 H   0  0
   66.3186   22.5848   44.7238 H   0  0
   69.6199   21.0805   46.8494 H   0  0
   61.6427   20.0729   47.2330 H   0  0
   60.6306   22.2454   46.5716 H   0  0
   62.0920   24.1513   45.9585 H   0  0
   64.5411   23.9045   45.9891 H   0  0
   64.0949   19.8019   47.2516 H   0  0
  1  2  2  0
  1  6  1  0
  1 11  1  0
  2  3  1  0
  2 29  1  0
  3  4  2  0
  3 30  1  0
  4  5  1  0
  4  7  1  0
  5  6  2  0
  5  9  1  0
  6 31  1  0
  7  8  1  0
  8 32  1  0
  8 33  1  0
  8 34  1  0
  9 10  1  0
 10 35  1  0
 10 36  1  0
 10 37  1  0
 11 12  1  0
 11 38  1  0
 12 13  2  0
 12 14  1  0
 14 15  1  0
 14 39  1  0
 14 40  1  0
 15 16  1  0
 16 19  2  0
 16 20  1  0
 17 18  1  0
 17 22  2  0
 17 41  1  0
 18 20  1  0
 18 21  2  0
 19 22  1  0
 20 42  1  0
 22 23  1  0
 23 27  2  0
 23 28  1  0
 24 25  1  0
 24 28  2  0
 24 43  1  0
 25 26  2  0
 25 44  1  0
 26 27  1  0
 26 45  1  0
 27 46  1  0
 28 47  1  0
M  END
> <Name>
ligand_44

> <IC50 (nM)>
45000

$$$$
ligand_118
  SciTegic07132122123D

 50 54  0  0  0  0            999 V2000
   75.4260   14.5630   61.0568 C   0  0
   74.7056   14.9203   62.1919 C   0  0
   73.4135   15.4022   62.0339 C   0  0
   72.8373   15.5139   60.7612 C   0  0
   73.5394   15.1357   59.5932 C   0  0
   74.8741   14.6674   59.7485 C   0  0
   72.7926   15.1584   58.3177 C   0  0
   71.9403   16.2182   58.0944 O   0  0
   71.3101   16.0587   56.8591 C   0  0
   71.7648   14.8526   56.3409 C   0  0
   72.6954   14.2910   57.2531 C   0  0
   70.4743   17.0806   56.2956 C   0  0
   69.3919   16.9421   55.5050 C   0  0
   68.7031   15.7130   55.0229 C   0  0
   67.7006   16.2083   54.1594 N   0  0
   67.6490   17.6022   54.0699 N   0  0
   68.6071   18.0410   54.8539 C   0  0
   68.9687   14.5691   55.3415 O   0  0
   66.7775   15.4452   53.3955 C   0  0
   66.7847   14.0422   53.4058 C   0  0
   65.8742   13.3101   52.6321 C   0  0
   64.9450   13.9735   51.8425 C   0  0
   64.9129   15.3615   51.8155 C   0  0
   65.8260   16.0913   52.5859 C   0  0
   68.8982   19.4727   55.0230 C   0  0
   72.5089   15.8370   63.4383 Cl  0  0
   75.8046   14.2927   58.6043 C   0  0
   75.6366   14.8774   57.4897 O   0  0
   76.7298   13.4494   58.8738 O   0  5
   68.9828   20.2748   53.8785 C   0  0
   69.3259   21.6215   54.0030 C   0  0
   69.5448   22.1795   55.2632 C   0  0
   69.4100   21.3932   56.4064 C   0  0
   69.0732   20.0423   56.2892 C   0  0
   64.0783   13.2707   51.0993 F   0  0
   76.4480   14.1967   61.1689 H   0  0
   75.1621   14.8231   63.1739 H   0  0
   71.8133   15.8695   60.6750 H   0  0
   71.4997   14.4349   55.3804 H   0  0
   73.2574   13.3734   57.1386 H   0  0
   70.8279   18.0743   56.5480 H   0  0
   67.5021   13.4842   54.0060 H   0  0
   65.9044   12.2257   52.6468 H   0  0
   64.1839   15.8712   51.1939 H   0  0
   65.8045   17.1772   52.5515 H   0  0
   68.8049   19.8558   52.8898 H   0  0
   69.4195   22.2393   53.1132 H   0  0
   69.8115   23.2310   55.3535 H   0  0
   69.5918   21.8201   57.3903 H   0  0
   68.9617   19.4471   57.1925 H   0  0
  1  2  2  0
  1  6  1  0
  1 36  1  0
  2  3  1  0
  2 37  1  0
  3  4  2  0
  3 26  1  0
  4  5  1  0
  4 38  1  0
  5  6  2  0
  5  7  1  0
  6 27  1  0
  7  8  1  0
  7 11  2  0
  8  9  1  0
  9 10  2  0
  9 12  1  0
 10 11  1  0
 10 39  1  0
 11 40  1  0
 12 13  2  0
 12 41  1  0
 13 14  1  0
 13 17  1  0
 14 15  1  0
 14 18  2  0
 15 16  1  0
 15 19  1  0
 16 17  2  0
 17 25  1  0
 19 20  2  0
 19 24  1  0
 20 21  1  0
 20 42  1  0
 21 22  2  0
 21 43  1  0
 22 23  1  0
 22 35  1  0
 23 24  2  0
 23 44  1  0
 24 45  1  0
 25 30  2  0
 25 34  1  0
 27 28  2  0
 27 29  1  0
 30 31  1  0
 30 46  1  0
 31 32  2  0
 31 47  1  0
 32 33  1  0
 32 48  1  0
 33 34  2  0
 33 49  1  0
 34 50  1  0
M  CHG  1  29  -1
M  END
> <Name>
ligand_118

> <IC50 (nM)>
20200

$$$$
ligand_57
  SciTegic07132122123D

 42 44  0  0  0  0            999 V2000
   66.8721   20.0322   48.6480 C   0  0
   66.6610   20.0334   47.2624 C   0  0
   67.5642   19.3937   46.4188 C   0  0
   68.6733   18.7433   46.9532 C   0  0
   68.8751   18.7343   48.3400 C   0  0
   67.9797   19.3828   49.2026 C   0  0
   68.2408   19.3193   50.5871 N   0  0
   67.5734   19.9799   51.6136 C   0  0
   66.6859   20.8164   51.4509 O   0  0
   67.9857   19.4869   53.0114 C   0  0  1  0  0  0
   69.8025   19.6319   53.2255 S   0  0
   70.0162   18.3786   54.4299 C   0  0
   70.8426   17.9345   56.5015 C   0  0
   69.7341   16.2587   55.1559 C   0  0
   69.5733   17.1955   54.1678 N   0  0
   70.6329   18.8133   55.5165 N   0  5
   71.4166   18.2161   57.5545 O   0  0
   70.3495   16.5372   56.3183 C   0  0
   70.5538   15.5846   57.3540 C   0  0
   70.6819   14.7700   58.1759 N   0  0
   69.1936   14.9162   54.8433 C   0  0
   69.7386   14.1812   53.7811 C   0  0
   68.1173   14.3765   55.5604 C   0  0
   67.6123   13.1159   55.2335 C   0  0
   68.1744   12.3854   54.1874 C   0  0
   69.2353   12.9191   53.4579 C   0  0
   67.3083   19.4056   44.7152 Cl  0  0
   67.2763   20.2632   54.1158 C   0  0
   66.1439   20.5420   49.2717 H   0  0
   65.7893   20.5392   46.8549 H   0  0
   69.3868   18.2509   46.2975 H   0  0
   69.7463   18.2198   48.7403 H   0  0
   69.0392   18.7674   50.8927 H   0  0
   67.6792   18.4359   53.0586 H   0  0
   70.5567   14.6023   53.2001 H   0  0
   67.6674   14.9329   56.3803 H   0  0
   66.7830   12.7046   55.8022 H   0  0
   67.7851   11.4007   53.9437 H   0  0
   69.6710   12.3590   52.6356 H   0  0
   66.1891   20.1799   54.0044 H   0  0
   67.5214   21.3312   54.0842 H   0  0
   67.5299   19.8775   55.1090 H   0  0
  1  2  2  0
  1  6  1  0
  1 29  1  0
  2  3  1  0
  2 30  1  0
  3  4  2  0
  3 27  1  0
  4  5  1  0
  4 31  1  0
  5  6  2  0
  5 32  1  0
  6  7  1  0
  7  8  1  0
  7 33  1  0
  8  9  2  0
  8 10  1  0
 10 11  1  0
 10 28  1  0
 10 34  1  0
 11 12  1  0
 12 15  2  0
 12 16  1  0
 13 16  1  0
 13 17  2  0
 13 18  1  0
 14 15  1  0
 14 18  2  0
 14 21  1  0
 18 19  1  0
 19 20  3  0
 21 22  2  0
 21 23  1  0
 22 26  1  0
 22 35  1  0
 23 24  2  0
 23 36  1  0
 24 25  1  0
 24 37  1  0
 25 26  2  0
 25 38  1  0
 26 39  1  0
 28 40  1  0
 28 41  1  0
 28 42  1  0
M  CHG  1  16  -1
M  END
> <Name>
ligand_57

> <IC50 (nM)>
300000

$$$$
ligand_127
  SciTegic07132122123D

 54 58  0  0  0  0            999 V2000
   72.3338   13.3107   60.9290 C   0  0
   72.4347   14.6549   61.2887 C   0  0
   72.1539   15.6372   60.3536 C   0  0
   71.7763   15.2672   59.0630 C   0  0
   71.6664   13.9109   58.6719 C   0  0
   71.9458   12.9027   59.6291 C   0  0
   71.3127   13.6690   57.2714 C   0  0
   70.3887   14.5261   56.7246 O   0  0
   70.1304   14.1324   55.4333 C   0  0
   70.9621   13.0571   55.1489 C   0  0
   71.7158   12.7710   56.3101 C   0  0
   69.0843   14.6580   54.6305 C   0  0
   68.8545   15.9546   54.3820 C   0  0
   69.6689   17.1599   54.6865 C   0  0
   68.9873   18.1824   53.9846 N   0  0
   67.8275   17.7578   53.3246 N   0  0
   67.7226   16.4780   53.5770 C   0  0
   70.6925   17.2005   55.3423 O   0  0
   69.3613   19.5478   53.8702 C   0  0
   68.5696   20.4366   53.1274 C   0  0
   68.9271   21.7838   52.9822 C   0  0
   70.0841   22.2799   53.5814 C   0  0
   70.8766   21.4105   54.3281 C   0  0
   70.5172   20.0607   54.4698 C   0  0
   66.6094   15.6437   53.1082 C   0  0
   71.8249   11.4000   59.3927 C   0  0
   70.9807   10.9931   58.5324 O   0  0
   72.5633   10.6381   60.1150 O   0  5
   66.2449   15.7071   51.7624 C   0  0
   65.2329   14.8721   51.2889 C   0  0
   64.5563   14.0080   52.1518 C   0  0
   64.8959   13.9738   53.5019 C   0  0
   65.9192   14.7955   53.9847 C   0  0
   70.3285   23.6094   53.3632 O   0  0
   71.4784   24.1542   53.9975 C   0  0
   72.5473   12.5439   61.6721 H   0  0
   72.7265   14.9260   62.2966 H   0  0
   72.2282   16.6871   60.6158 H   0  0
   71.5786   16.0541   58.3362 H   0  0
   70.9854   12.5050   54.2212 H   0  0
   72.4269   11.9703   56.4604 H   0  0
   68.4373   13.8954   54.2080 H   0  0
   67.6588   20.0803   52.6542 H   0  0
   68.2947   22.4473   52.3984 H   0  0
   71.7879   21.7431   54.8129 H   0  0
   71.1722   19.4257   55.0627 H   0  0
   66.7493   16.3849   51.0760 H   0  0
   64.9701   14.8974   50.2368 H   0  0
   63.7605   13.3728   51.7669 H   0  0
   64.3843   13.2984   54.1850 H   0  0
   66.1661   14.7558   55.0440 H   0  0
   71.5265   25.2178   53.7445 H   0  0
   72.3948   23.6835   53.6265 H   0  0
   71.4046   24.0755   55.0873 H   0  0
  1  2  2  0
  1  6  1  0
  1 36  1  0
  2  3  1  0
  2 37  1  0
  3  4  2  0
  3 38  1  0
  4  5  1  0
  4 39  1  0
  5  6  2  0
  5  7  1  0
  6 26  1  0
  7  8  1  0
  7 11  2  0
  8  9  1  0
  9 10  2  0
  9 12  1  0
 10 11  1  0
 10 40  1  0
 11 41  1  0
 12 13  2  0
 12 42  1  0
 13 14  1  0
 13 17  1  0
 14 15  1  0
 14 18  2  0
 15 16  1  0
 15 19  1  0
 16 17  2  0
 17 25  1  0
 19 20  2  0
 19 24  1  0
 20 21  1  0
 20 43  1  0
 21 22  2  0
 21 44  1  0
 22 23  1  0
 22 34  1  0
 23 24  2  0
 23 45  1  0
 24 46  1  0
 25 29  2  0
 25 33  1  0
 26 27  2  0
 26 28  1  0
 29 30  1  0
 29 47  1  0
 30 31  2  0
 30 48  1  0
 31 32  1  0
 31 49  1  0
 32 33  2  0
 32 50  1  0
 33 51  1  0
 34 35  1  0
 35 52  1  0
 35 53  1  0
 35 54  1  0
M  CHG  1  28  -1
M  END
> <Name>
ligand_127

> <IC50 (nM)>
30700

$$$$
ligand_120
  SciTegic07132122123D

 62 66  0  0  0  0            999 V2000
   68.9844   17.8441   55.1837 C   0  0
   68.2051   16.6949   55.0931 C   0  0
   67.4963   16.4617   53.9221 C   0  0
   67.5706   17.3561   52.8473 C   0  0
   68.3686   18.5220   52.9081 C   0  0
   69.0798   18.7769   54.1131 C   0  0
   68.4762   19.3247   51.6749 C   0  0
   67.3231   19.5335   50.9512 O   0  0
   67.6172   20.2875   49.8211 C   0  0
   68.9908   20.4993   49.8303 C   0  0
   69.5275   19.9047   51.0008 C   0  0
   66.5957   20.7996   48.9570 C   0  0
   66.6161   20.8603   47.6134 C   0  0
   67.6367   20.3624   46.6534 C   0  0
   67.1116   20.7338   45.3971 N   0  0
   65.8928   21.4114   45.4504 N   0  0
   65.5871   21.4754   46.7227 C   0  0
   68.6566   19.7620   46.9366 O   0  0
   67.6684   20.4620   44.1248 C   0  0
   66.9967   20.8649   42.9652 C   0  0
   67.5129   20.5879   41.6957 C   0  0
   68.7265   19.8976   41.5355 C   0  0
   69.3985   19.5068   42.7019 C   0  0
   68.8790   19.7848   43.9736 C   0  0
   64.3642   22.1218   47.2009 C   0  0
   66.5400   15.0302   53.7974 Cl  0  0
   69.9297   20.0108   54.3789 C   0  0
   70.8732   19.8809   55.2346 O   0  0
   69.6157   21.0866   53.7814 O   0  5
   64.0811   23.4215   46.7648 C   0  0
   62.9330   24.0628   47.2233 C   0  0
   62.0521   23.3956   48.0744 C   0  0
   62.3159   22.0859   48.4735 C   0  0
   63.4702   21.4416   48.0317 C   0  0
   69.2651   19.5999   40.1280 C   0  0
   70.6083   18.8351   40.1219 C   0  0
   69.4911   20.9239   39.3662 C   0  0
   68.2458   18.7366   39.3532 C   0  0
   69.5362   18.0422   56.1041 H   0  0
   68.1608   16.0059   55.9327 H   0  0
   67.0302   17.1315   51.9298 H   0  0
   69.5466   21.0692   49.0996 H   0  0
   70.5550   19.9164   51.3413 H   0  0
   65.7431   21.1892   49.5032 H   0  0
   66.0548   21.3994   43.0506 H   0  0
   66.9440   20.9214   40.8305 H   0  0
   70.3451   18.9747   42.6725 H   0  0
   69.4521   19.4506   44.8368 H   0  0
   64.7554   23.9393   46.0859 H   0  0
   62.7137   25.0818   46.9121 H   0  0
   61.1505   23.8982   48.4169 H   0  0
   61.6384   21.5689   49.1478 H   0  0
   63.6591   20.4164   48.3402 H   0  0
   70.5203   17.8610   40.6171 H   0  0
   71.3988   19.4040   40.6252 H   0  0
   70.9506   18.6456   39.0974 H   0  0
   68.5609   21.4850   39.2248 H   0  0
   69.9085   20.7400   38.3693 H   0  0
   70.1894   21.5750   39.9054 H   0  0
   67.2891   19.2514   39.2120 H   0  0
   68.0399   17.7988   39.8827 H   0  0
   68.6219   18.4808   38.3557 H   0  0
  1  2  2  0
  1  6  1  0
  1 39  1  0
  2  3  1  0
  2 40  1  0
  3  4  2  0
  3 26  1  0
  4  5  1  0
  4 41  1  0
  5  6  2  0
  5  7  1  0
  6 27  1  0
  7  8  1  0
  7 11  2  0
  8  9  1  0
  9 10  2  0
  9 12  1  0
 10 11  1  0
 10 42  1  0
 11 43  1  0
 12 13  2  0
 12 44  1  0
 13 14  1  0
 13 17  1  0
 14 15  1  0
 14 18  2  0
 15 16  1  0
 15 19  1  0
 16 17  2  0
 17 25  1  0
 19 20  2  0
 19 24  1  0
 20 21  1  0
 20 45  1  0
 21 22  2  0
 21 46  1  0
 22 23  1  0
 22 35  1  0
 23 24  2  0
 23 47  1  0
 24 48  1  0
 25 30  2  0
 25 34  1  0
 27 28  2  0
 27 29  1  0
 30 31  1  0
 30 49  1  0
 31 32  2  0
 31 50  1  0
 32 33  1  0
 32 51  1  0
 33 34  2  0
 33 52  1  0
 34 53  1  0
 35 36  1  0
 35 37  1  0
 35 38  1  0
 36 54  1  0
 36 55  1  0
 36 56  1  0
 37 57  1  0
 37 58  1  0
 37 59  1  0
 38 60  1  0
 38 61  1  0
 38 62  1  0
M  CHG  1  29  -1
M  END
> <Name>
ligand_120

> <IC50 (nM)>
5800

$$$$
ligand_103
  SciTegic07132122123D

 45 48  0  0  0  0            999 V2000
   68.7333   20.6311   53.3219 C   0  0
   68.5893   19.7277   52.2652 C   0  0
   68.9094   18.3871   52.4727 C   0  0
   69.2172   20.2109   54.5650 C   0  0
   69.5620   18.8714   54.7738 C   0  0
   69.3830   17.9636   53.7274 C   0  0
   69.6404   16.6185   53.8551 O   0  0
   69.9728   16.1291   55.1043 C   0  0
   70.2268   16.8853   56.1902 C   0  0
   70.1185   18.3679   56.0550 C   0  0
   70.0248   14.6601   55.1597 C   0  0
   71.1273   13.9588   54.6438 C   0  0
   71.2118   12.5699   54.7857 C   0  0
   68.9875   13.9551   55.7874 C   0  0
   70.5922   16.3811   57.4295 O   0  0
   70.4879   19.1092   56.9572 O   0  0
   69.3176   21.1288   55.5710 O   0  0
   68.1058   20.2839   51.1138 O   0  0
   69.0796   12.5776   55.9227 C   0  0
   70.1960   11.8965   55.4490 C   0  0
   68.1444   19.5038   49.9171 C   0  0
   67.7135   20.3647   48.7447 C   0  0
   66.6915   19.9415   47.8776 C   0  0
   66.3147   20.7242   46.7786 C   0  0
   66.9579   21.9369   46.5386 C   0  0
   67.9743   22.3712   47.3857 C   0  0
   68.3526   21.5872   48.4808 C   0  0
   66.4965   22.8992   45.1873 Cl  0  0
   68.0587   11.9123   56.5347 O   0  0
   70.3276   10.5600   55.6864 O   0  0
   68.4586   21.6704   53.1588 H   0  0
   68.7866   17.6448   51.6906 H   0  0
   71.9327   14.4946   54.1445 H   0  0
   72.0729   12.0242   54.4075 H   0  0
   68.1139   14.4762   56.1729 H   0  0
   70.6732   15.4164   57.3714 H   0  0
   69.1253   22.0208   55.2360 H   0  0
   67.4640   18.6503   50.0201 H   0  0
   69.1609   19.1390   49.7241 H   0  0
   66.1765   18.9991   48.0545 H   0  0
   65.5207   20.3882   46.1146 H   0  0
   68.4767   23.3180   47.2057 H   0  0
   69.1491   21.9419   49.1320 H   0  0
   68.1511   10.9648   56.3115 H   0  0
   70.2975   10.4816   56.6586 H   0  0
  1  2  2  0
  1  4  1  0
  1 31  1  0
  2  3  1  0
  2 18  1  0
  3  6  2  0
  3 32  1  0
  4  5  2  0
  4 17  1  0
  5  6  1  0
  5 10  1  0
  6  7  1  0
  7  8  1  0
  8  9  2  0
  8 11  1  0
  9 10  1  0
  9 15  1  0
 10 16  2  0
 11 12  1  0
 11 14  2  0
 12 13  2  0
 12 33  1  0
 13 20  1  0
 13 34  1  0
 14 19  1  0
 14 35  1  0
 15 36  1  0
 17 37  1  0
 18 21  1  0
 19 20  2  0
 19 29  1  0
 20 30  1  0
 21 22  1  0
 21 38  1  0
 21 39  1  0
 22 23  2  0
 22 27  1  0
 23 24  1  0
 23 40  1  0
 24 25  2  0
 24 41  1  0
 25 26  1  0
 25 28  1  0
 26 27  2  0
 26 42  1  0
 27 43  1  0
 29 44  1  0
 30 45  1  0
M  END
> <Name>
ligand_103

> <IC50 (nM)>
20900

$$$$
ligand_49
  SciTegic07132122123D

 57 60  0  0  0  0            999 V2000
   69.0757   18.2509   55.2963 C   0  0
   69.0304   17.6983   54.0127 C   0  0
   69.1511   16.3189   53.8191 C   0  0
   69.3237   15.4574   54.9104 C   0  0
   69.3673   16.0150   56.1954 C   0  0
   69.2416   17.3974   56.3863 C   0  0
   69.4546   13.9561   54.7300 C   0  0
   68.1775   13.3498   54.1435 C   0  0
   70.6725   13.5967   53.8751 C   0  0
   68.9448   20.4224   56.5464 C   0  0
   69.1272   20.0157   57.6926 O   0  0
   68.9405   19.6506   55.3937 N   0  0
   68.6737   21.8968   56.2748 C   0  0
   71.1936   22.2934   55.2273 C   0  0
   72.8441   21.4163   53.2801 C   0  0
   71.4766   21.2412   53.2162 C   0  0
   73.3095   22.0678   54.3935 C   0  0
   70.1627   22.8987   56.5385 S   0  0
   70.6302   21.6837   54.1733 N   0  0
   72.5114   22.5097   55.3767 N   0  0
   70.8420   20.5626   52.0870 C   0  0
   71.4525   19.5808   51.3292 C   0  0
   69.1977   20.1531   50.6449 C   0  0
   70.3865   19.0282   50.1065 S   0  0
   69.5308   20.8428   51.7181 N   0  0
   67.8635   20.2444   49.9615 C   0  0
   68.0890   20.4080   48.5529 O   0  0
   66.9093   20.2747   47.8659 C   0  0
   64.5318   19.9443   46.4697 C   0  0
   65.2167   18.8224   46.9339 C   0  0
   66.4093   18.9870   47.6323 C   0  0
   66.2541   21.3943   47.3412 C   0  0
   65.0562   21.2263   46.6454 C   0  0
   66.8932   22.9884   47.5005 Cl  0  0
   68.8904   18.3341   53.1440 H   0  0
   69.1069   15.9253   52.8068 H   0  0
   69.4982   15.3799   57.0693 H   0  0
   69.2822   17.7732   57.4041 H   0  0
   69.6073   13.4978   55.7166 H   0  0
   67.3075   13.5937   54.7640 H   0  0
   68.2567   12.2586   54.0923 H   0  0
   67.9776   13.7166   53.1305 H   0  0
   71.5875   14.0284   54.2958 H   0  0
   70.5737   13.9615   52.8467 H   0  0
   70.8042   12.5100   53.8303 H   0  0
   68.9099   20.1600   54.5123 H   0  0
   68.2653   22.0615   55.2726 H   0  0
   67.9065   22.2252   56.9842 H   0  0
   73.5235   21.0853   52.5074 H   0  0
   74.3694   22.2614   54.5346 H   0  0
   72.4405   19.1541   51.4290 H   0  0
   67.2938   19.3333   50.1845 H   0  0
   67.3131   21.1120   50.3459 H   0  0
   63.5966   19.8158   45.9318 H   0  0
   64.8207   17.8286   46.7228 H   0  0
   66.9528   18.1181   47.9958 H   0  0
   64.5304   22.0755   46.2109 H   0  0
  1  2  2  0
  1  6  1  0
  1 12  1  0
  2  3  1  0
  2 35  1  0
  3  4  2  0
  3 36  1  0
  4  5  1  0
  4  7  1  0
  5  6  2  0
  5 37  1  0
  6 38  1  0
  7  8  1  0
  7  9  1  0
  7 39  1  0
  8 40  1  0
  8 41  1  0
  8 42  1  0
  9 43  1  0
  9 44  1  0
  9 45  1  0
 10 11  2  0
 10 12  1  0
 10 13  1  0
 12 46  1  0
 13 18  1  0
 13 47  1  0
 13 48  1  0
 14 18  1  0
 14 19  2  0
 14 20  1  0
 15 16  2  0
 15 17  1  0
 15 49  1  0
 16 19  1  0
 16 21  1  0
 17 20  2  0
 17 50  1  0
 21 22  2  0
 21 25  1  0
 22 24  1  0
 22 51  1  0
 23 24  1  0
 23 25  2  0
 23 26  1  0
 26 27  1  0
 26 52  1  0
 26 53  1  0
 27 28  1  0
 28 31  2  0
 28 32  1  0
 29 30  2  0
 29 33  1  0
 29 54  1  0
 30 31  1  0
 30 55  1  0
 31 56  1  0
 32 33  2  0
 32 34  1  0
 33 57  1  0
M  END
> <Name>
ligand_49

> <IC50 (nM)>
200000

$$$$
ligand_104
  SciTegic07132122123D

 46 49  0  0  0  0            999 V2000
   68.8139   20.6954   53.4044 C   0  0
   68.6305   19.7814   52.3639 C   0  0
   68.9212   18.4383   52.5913 C   0  0
   69.3021   20.2817   54.6511 C   0  0
   69.6227   18.9392   54.8803 C   0  0
   69.4141   18.0253   53.8445 C   0  0
   69.6666   16.6804   53.9757 O   0  0
   70.0561   16.1973   55.2088 C   0  0
   70.3133   16.9525   56.2937 C   0  0
   70.1731   18.4349   56.1705 C   0  0
   70.1301   14.7302   55.2491 C   0  0
   71.3593   14.0620   55.1119 C   0  0
   71.4228   12.6692   55.2223 C   0  0
   68.9596   13.9934   55.4723 C   0  0
   70.6902   16.4432   57.5281 O   0  0
   70.5002   19.1719   57.0923 O   0  0
   69.4407   21.2221   55.6330 O   0  0
   68.1608   20.3382   51.2072 O   0  0
   69.0327   12.6124   55.5714 C   0  0
   70.2577   11.9599   55.4746 C   0  0
   68.0903   19.5276   50.0344 C   0  0
   67.9356   20.4452   48.8359 C   0  0
   69.0376   21.1927   48.3912 C   0  0
   68.9286   22.0479   47.2924 C   0  0
   67.7133   22.1702   46.6203 C   0  0
   66.5970   21.4449   47.0498 C   0  0
   66.7095   20.5875   48.1585 C   0  0
   67.8813   11.9065   55.7602 O   0  0
   70.3278   10.6137   55.6829 O   0  0
   65.3515   21.5911   46.3441 C   0  0
   64.3536   21.7191   45.7642 N   0  0
   68.5729   21.7413   53.2239 H   0  0
   68.7716   17.6857   51.8237 H   0  0
   72.2735   14.6246   54.9299 H   0  0
   72.3722   12.1464   55.1356 H   0  0
   67.9971   14.4897   55.5667 H   0  0
   70.7094   15.4747   57.4792 H   0  0
   69.1370   22.0827   55.2944 H   0  0
   67.2355   18.8457   50.1101 H   0  0
   69.0051   18.9376   49.8969 H   0  0
   69.9926   21.1156   48.9084 H   0  0
   69.7928   22.6232   46.9687 H   0  0
   67.6413   22.8403   45.7645 H   0  0
   65.8401   20.0277   48.5015 H   0  0
   68.0457   11.0059   55.4183 H   0  0
   69.8821   10.4755   56.5401 H   0  0
  1  2  2  0
  1  4  1  0
  1 32  1  0
  2  3  1  0
  2 18  1  0
  3  6  2  0
  3 33  1  0
  4  5  2  0
  4 17  1  0
  5  6  1  0
  5 10  1  0
  6  7  1  0
  7  8  1  0
  8  9  2  0
  8 11  1  0
  9 10  1  0
  9 15  1  0
 10 16  2  0
 11 12  1  0
 11 14  2  0
 12 13  2  0
 12 34  1  0
 13 20  1  0
 13 35  1  0
 14 19  1  0
 14 36  1  0
 15 37  1  0
 17 38  1  0
 18 21  1  0
 19 20  2  0
 19 28  1  0
 20 29  1  0
 21 22  1  0
 21 39  1  0
 21 40  1  0
 22 23  2  0
 22 27  1  0
 23 24  1  0
 23 41  1  0
 24 25  2  0
 24 42  1  0
 25 26  1  0
 25 43  1  0
 26 27  2  0
 26 30  1  0
 27 44  1  0
 28 45  1  0
 29 46  1  0
 30 31  3  0
M  END
> <Name>
ligand_104

> <IC50 (nM)>
25400

$$$$
ligand_119
  SciTegic07132122123D

 59 63  0  0  0  0            999 V2000
   67.1749   17.4256   54.2997 C   0  0
   68.2090   17.3405   55.2301 C   0  0
   69.4042   17.9873   54.9589 C   0  0
   69.5714   18.7148   53.7836 C   0  0
   68.5376   18.8155   52.8327 C   0  0
   67.3177   18.1479   53.0888 C   0  0
   68.8113   19.6267   51.6510 C   0  0
   67.7585   20.2858   51.1149 O   0  0
   68.1388   20.8598   49.9265 C   0  0
   69.5194   20.7507   49.8512 C   0  0
   69.9469   19.9448   50.9375 C   0  0
   67.1316   21.3898   49.0856 C   0  0
   67.1054   21.3507   47.7489 C   0  0
   68.1321   20.9887   46.7363 C   0  0
   67.4498   21.1682   45.5183 N   0  0
   66.1368   21.6007   45.6571 N   0  0
   65.9057   21.6662   46.9404 C   0  0
   69.2853   20.6592   46.9428 O   0  0
   67.9188   20.8711   44.2135 C   0  0
   67.0692   21.0356   43.1078 C   0  0
   67.4745   20.6707   41.8222 C   0  0
   68.7478   20.1346   41.6083 C   0  0
   69.6164   20.0066   42.6963 C   0  0
   69.2042   20.3677   43.9836 C   0  0
   64.5781   21.9665   47.4845 C   0  0
   70.7014   17.9005   56.0862 Cl  0  0
   66.1261   18.1388   52.1479 C   0  0
   64.9896   18.2940   52.7083 O   0  0
   66.3223   17.9033   50.9129 O   0  5
   63.9740   21.1021   48.4042 C   0  0
   62.6963   21.3856   48.8821 C   0  0
   62.0161   22.5132   48.4237 C   0  0
   62.6071   23.3615   47.4856 C   0  0
   63.8880   23.0849   47.0068 C   0  0
   69.1513   19.6893   40.2191 C   0  0
   70.3755   20.4543   39.7085 C   0  0
   69.3916   18.1783   40.1618 C   0  0
   66.2288   16.9217   54.5030 H   0  0
   68.0668   16.7767   56.1462 H   0  0
   70.5162   19.2238   53.6133 H   0  0
   70.1501   21.1471   49.0700 H   0  0
   70.9506   19.6044   51.1492 H   0  0
   66.2436   21.6865   49.6352 H   0  0
   66.0619   21.4214   43.2464 H   0  0
   66.7787   20.7930   40.9944 H   0  0
   70.6168   19.6010   42.5610 H   0  0
   69.9096   20.2188   44.7957 H   0  0
   64.4782   20.2013   48.7573 H   0  0
   62.2394   20.7213   49.6142 H   0  0
   61.0163   22.7259   48.7930 H   0  0
   62.0633   24.2330   47.1292 H   0  0
   64.3423   23.7365   46.2646 H   0  0
   68.3273   19.9099   39.5273 H   0  0
   70.5936   20.1815   38.6703 H   0  0
   71.2709   20.2401   40.3020 H   0  0
   70.2034   21.5359   39.7418 H   0  0
   69.6018   17.8604   39.1349 H   0  0
   68.5099   17.6280   40.5091 H   0  0
   70.2406   17.8747   40.7842 H   0  0
  1  2  2  0
  1  6  1  0
  1 38  1  0
  2  3  1  0
  2 39  1  0
  3  4  2  0
  3 26  1  0
  4  5  1  0
  4 40  1  0
  5  6  2  0
  5  7  1  0
  6 27  1  0
  7  8  1  0
  7 11  2  0
  8  9  1  0
  9 10  2  0
  9 12  1  0
 10 11  1  0
 10 41  1  0
 11 42  1  0
 12 13  2  0
 12 43  1  0
 13 14  1  0
 13 17  1  0
 14 15  1  0
 14 18  2  0
 15 16  1  0
 15 19  1  0
 16 17  2  0
 17 25  1  0
 19 20  2  0
 19 24  1  0
 20 21  1  0
 20 44  1  0
 21 22  2  0
 21 45  1  0
 22 23  1  0
 22 35  1  0
 23 24  2  0
 23 46  1  0
 24 47  1  0
 25 30  2  0
 25 34  1  0
 27 28  2  0
 27 29  1  0
 30 31  1  0
 30 48  1  0
 31 32  2  0
 31 49  1  0
 32 33  1  0
 32 50  1  0
 33 34  2  0
 33 51  1  0
 34 52  1  0
 35 36  1  0
 35 37  1  0
 35 53  1  0
 36 54  1  0
 36 55  1  0
 36 56  1  0
 37 57  1  0
 37 58  1  0
 37 59  1  0
M  CHG  1  29  -1
M  END
> <Name>
ligand_119

> <IC50 (nM)>
6000

$$$$
ligand_129
  SciTegic07132122123D

 57 61  0  0  0  0            999 V2000
   69.1024   20.1364   48.1711 C   0  0
   67.7848   20.6786   48.6225 C   0  0
   67.0787   20.8214   47.4133 N   0  0
   67.7978   20.4428   46.2918 N   0  0
   68.9829   20.0907   46.6997 C   0  0
   67.4838   20.9274   49.7771 O   0  0
   65.8073   21.4106   47.1904 C   0  0
   65.0344   21.9201   48.2397 C   0  0
   63.8283   22.5810   47.9805 C   0  0
   63.3865   22.7486   46.6682 C   0  0
   64.1259   22.2326   45.5957 C   0  0
   65.3199   21.5497   45.8740 C   0  0
   70.0347   19.7587   45.7361 C   0  0
   71.2903   20.3673   45.8043 C   0  0
   72.1900   20.2013   44.7502 C   0  0
   71.8390   19.4322   43.6377 C   0  0
   70.5912   18.8174   43.5731 C   0  0
   69.6839   18.9897   44.6177 C   0  0
   63.6732   22.4569   44.1698 C   0  0
   63.9110   21.5497   43.3102 O   0  5
   63.0785   23.5550   43.9348 O   0  0
   70.1488   19.7296   48.9055 C   0  0
   70.2606   19.7608   50.3705 C   0  0
   70.8575   20.8574   51.0096 C   0  0
   71.0214   20.8648   52.3981 C   0  0
   70.5721   19.7790   53.1502 C   0  0
   69.9917   18.6758   52.5277 C   0  0
   69.8283   18.6708   51.1388 C   0  0
   70.7261   19.7560   54.5097 O   0  0
   69.8165   20.6650   55.1504 C   0  0
   70.5525   21.6190   56.0694 C   0  0
   71.7567   21.2575   56.6911 C   0  0
   72.3988   22.1402   57.5596 C   0  0
   71.8398   23.3900   57.8212 C   0  0
   70.6371   23.7580   57.2235 C   0  0
   69.9945   22.8754   56.3554 C   0  0
   65.3589   21.8363   49.2722 H   0  0
   63.2448   22.9856   48.8026 H   0  0
   62.4635   23.2892   46.4559 H   0  0
   65.8819   21.1653   45.0229 H   0  0
   71.5504   21.0277   46.6276 H   0  0
   73.1487   20.7121   44.7638 H   0  0
   72.5237   19.3407   42.7994 H   0  0
   70.3077   18.2448   42.6923 H   0  0
   68.6835   18.5679   44.5273 H   0  0
   71.0237   19.3078   48.4180 H   0  0
   71.1716   21.7173   50.4213 H   0  0
   71.4981   21.7073   52.8949 H   0  0
   69.6653   17.8290   53.1271 H   0  0
   69.3422   17.8278   50.6514 H   0  0
   69.2056   21.2303   54.4329 H   0  0
   69.1321   20.0634   55.7604 H   0  0
   72.1998   20.2843   56.4901 H   0  0
   73.3290   21.8530   58.0473 H   0  0
   72.3376   24.0732   58.5063 H   0  0
   70.1977   24.7282   57.4430 H   0  0
   69.0553   23.1737   55.8922 H   0  0
  1  2  1  0
  1  5  1  0
  1 22  2  0
  2  3  1  0
  2  6  2  0
  3  4  1  0
  3  7  1  0
  4  5  2  0
  5 13  1  0
  7  8  2  0
  7 12  1  0
  8  9  1  0
  8 37  1  0
  9 10  2  0
  9 38  1  0
 10 11  1  0
 10 39  1  0
 11 12  2  0
 11 19  1  0
 12 40  1  0
 13 14  2  0
 13 18  1  0
 14 15  1  0
 14 41  1  0
 15 16  2  0
 15 42  1  0
 16 17  1  0
 16 43  1  0
 17 18  2  0
 17 44  1  0
 18 45  1  0
 19 20  1  0
 19 21  2  0
 22 23  1  0
 22 46  1  0
 23 24  2  0
 23 28  1  0
 24 25  1  0
 24 47  1  0
 25 26  2  0
 25 48  1  0
 26 27  1  0
 26 29  1  0
 27 28  2  0
 27 49  1  0
 28 50  1  0
 29 30  1  0
 30 31  1  0
 30 51  1  0
 30 52  1  0
 31 32  2  0
 31 36  1  0
 32 33  1  0
 32 53  1  0
 33 34  2  0
 33 54  1  0
 34 35  1  0
 34 55  1  0
 35 36  2  0
 35 56  1  0
 36 57  1  0
M  CHG  1  20  -1
M  END
> <Name>
ligand_129

> <IC50 (nM)>
15700

$$$$
ligand_33
  SciTegic07132122123D

 44 47  0  0  0  0            999 V2000
   65.1388   21.8829   46.1804 C   0  0
   66.1828   21.5261   47.0348 C   0  0
   66.0707   21.8218   48.3991 C   0  0
   64.9337   22.4659   48.8915 C   0  0
   63.8963   22.8245   48.0390 C   0  0
   64.0065   22.5290   46.6843 C   0  0
   64.8188   22.8150   50.5729 Cl  0  0
   62.7268   22.9643   45.6169 Cl  0  0
   67.3582   20.8730   46.6118 N   0  0
   67.7221   20.5274   45.3182 C   0  0
   67.0819   20.7611   44.2949 O   0  0
   69.0441   19.7758   45.2514 C   0  0
   70.4391   20.9279   45.0888 S   0  0
   70.5751   21.5375   46.7502 C   0  0
   71.4018   23.1374   48.1673 C   0  0
   70.8884   22.4972   49.2641 C   0  0
   70.1992   21.3310   49.0077 C   0  0
   70.0114   20.8401   47.7557 N   0  0
   71.2624   22.6749   46.9144 N   0  0
   69.6090   20.5772   50.1142 C   0  0
   68.9741   20.2418   52.2350 C   0  0
   69.0621   19.3180   49.9780 C   0  0
   68.4574   18.7753   51.4838 S   0  0
   69.5533   21.0924   51.4036 N   0  0
   68.7929   20.4935   53.6840 C   0  0
   69.3739   21.6454   54.2486 C   0  0
   69.2443   21.9332   55.6097 C   0  0
   68.5237   21.0731   56.4312 C   0  0
   67.9389   19.9263   55.9030 C   0  0
   68.0710   19.6399   54.5397 C   0  0
   65.1801   21.6695   45.1179 H   0  0
   66.8643   21.5576   49.0918 H   0  0
   63.0120   23.3273   48.4200 H   0  0
   68.0513   20.6768   47.3301 H   0  0
   69.1621   19.1012   46.1051 H   0  0
   69.0207   19.1445   44.3564 H   0  0
   71.9606   24.0648   48.2600 H   0  0
   71.0217   22.8883   50.2644 H   0  0
   68.9916   18.6999   49.0944 H   0  0
   69.9353   22.3334   53.6185 H   0  0
   69.7078   22.8224   56.0339 H   0  0
   68.4216   21.2954   57.4904 H   0  0
   67.3854   19.2577   56.5621 H   0  0
   67.5902   18.7411   54.1623 H   0  0
  1  2  2  0
  1  6  1  0
  1 31  1  0
  2  3  1  0
  2  9  1  0
  3  4  2  0
  3 32  1  0
  4  5  1  0
  4  7  1  0
  5  6  2  0
  5 33  1  0
  6  8  1  0
  9 10  1  0
  9 34  1  0
 10 11  2  0
 10 12  1  0
 12 13  1  0
 12 35  1  0
 12 36  1  0
 13 14  1  0
 14 18  2  0
 14 19  1  0
 15 16  1  0
 15 19  2  0
 15 37  1  0
 16 17  2  0
 16 38  1  0
 17 18  1  0
 17 20  1  0
 20 22  2  0
 20 24  1  0
 21 23  1  0
 21 24  2  0
 21 25  1  0
 22 23  1  0
 22 39  1  0
 25 26  1  0
 25 30  2  0
 26 27  2  0
 26 40  1  0
 27 28  1  0
 27 41  1  0
 28 29  2  0
 28 42  1  0
 29 30  1  0
 29 43  1  0
 30 44  1  0
M  END
> <Name>
ligand_33

> <IC50 (nM)>
3000

$$$$
ligand_124
  SciTegic07132122123D

 59 63  0  0  0  0            999 V2000
   71.6800   14.8286   60.1615 C   0  0
   73.0447   14.8089   60.4483 C   0  0
   73.9321   14.2601   59.5304 C   0  0
   73.4532   13.7426   58.3254 C   0  0
   72.0793   13.7656   58.0149 C   0  0
   71.1718   14.2991   58.9556 C   0  0
   71.6631   13.2621   56.7143 C   0  0
   70.7977   14.0526   56.0355 O   0  0
   70.4001   13.4051   54.8952 C   0  0
   71.1269   12.2262   54.8071 C   0  0
   71.9566   12.1507   55.9571 C   0  0
   69.3312   13.8961   54.1052 C   0  0
   69.1813   15.2055   53.8713 C   0  0
   70.1818   16.2960   54.0209 C   0  0
   69.4275   17.4447   53.7214 N   0  0
   68.1292   17.1838   53.2885 N   0  0
   67.9633   15.8934   53.4032 C   0  0
   71.3755   16.1741   54.2307 O   0  0
   69.8206   18.7929   53.8949 C   0  0
   71.0532   19.1330   54.4627 C   0  0
   71.3883   20.4676   54.7118 C   0  0
   70.4974   21.4993   54.3985 C   0  0
   69.2721   21.1655   53.8124 C   0  0
   68.9404   19.8312   53.5617 C   0  0
   66.6818   15.2362   53.1470 C   0  0
   69.6701   14.3088   58.7603 C   0  0
   69.1153   13.2538   58.3164 O   0  0
   69.0556   15.3608   59.1324 O   0  5
   66.0187   15.4976   51.9437 C   0  0
   64.7668   14.9307   51.7088 C   0  0
   64.1773   14.1229   52.6822 C   0  0
   64.8320   13.8800   53.8911 C   0  0
   66.0845   14.4427   54.1313 C   0  0
   70.8173   22.9470   54.7055 C   0  0
   70.9304   23.1887   56.2129 C   0  0
   72.0831   23.4155   53.9825 C   0  0
   70.9777   15.2521   60.8788 H   0  0
   73.4046   15.2139   61.3891 H   0  0
   74.9954   14.2375   59.7458 H   0  0
   74.1602   13.3330   57.6085 H   0  0
   71.0349   11.4835   54.0282 H   0  0
   72.6284   11.3545   56.2395 H   0  0
   68.5489   13.1840   53.8743 H   0  0
   71.7674   18.3720   54.7646 H   0  0
   72.3459   20.6818   55.1809 H   0  0
   68.5493   21.9379   53.5631 H   0  0
   67.9685   19.6108   53.1265 H   0  0
   66.4742   16.1476   51.2013 H   0  0
   64.2424   15.1254   50.7768 H   0  0
   63.1958   13.6923   52.5069 H   0  0
   64.3613   13.2660   54.6561 H   0  0
   66.5659   14.2841   55.0966 H   0  0
   69.9921   23.5727   54.3395 H   0  0
   71.0826   24.2532   56.4218 H   0  0
   71.7698   22.6398   56.6536 H   0  0
   70.0172   22.8731   56.7297 H   0  0
   72.2447   24.4865   54.1457 H   0  0
   72.0013   23.2496   52.9025 H   0  0
   72.9763   22.8883   54.3348 H   0  0
  1  2  2  0
  1  6  1  0
  1 37  1  0
  2  3  1  0
  2 38  1  0
  3  4  2  0
  3 39  1  0
  4  5  1  0
  4 40  1  0
  5  6  2  0
  5  7  1  0
  6 26  1  0
  7  8  1  0
  7 11  2  0
  8  9  1  0
  9 10  2  0
  9 12  1  0
 10 11  1  0
 10 41  1  0
 11 42  1  0
 12 13  2  0
 12 43  1  0
 13 14  1  0
 13 17  1  0
 14 15  1  0
 14 18  2  0
 15 16  1  0
 15 19  1  0
 16 17  2  0
 17 25  1  0
 19 20  2  0
 19 24  1  0
 20 21  1  0
 20 44  1  0
 21 22  2  0
 21 45  1  0
 22 23  1  0
 22 34  1  0
 23 24  2  0
 23 46  1  0
 24 47  1  0
 25 29  2  0
 25 33  1  0
 26 27  2  0
 26 28  1  0
 29 30  1  0
 29 48  1  0
 30 31  2  0
 30 49  1  0
 31 32  1  0
 31 50  1  0
 32 33  2  0
 32 51  1  0
 33 52  1  0
 34 35  1  0
 34 36  1  0
 34 53  1  0
 35 54  1  0
 35 55  1  0
 35 56  1  0
 36 57  1  0
 36 58  1  0
 36 59  1  0
M  CHG  1  28  -1
M  END
> <Name>
ligand_124

> <IC50 (nM)>
11700

$$$$
ligand_106
  SciTegic07132122123D

 45 48  0  0  0  0            999 V2000
   68.7328   20.9616   53.6065 C   0  0
   68.6112   20.0320   52.5783 C   0  0
   68.8927   18.6908   52.7957 C   0  0
   69.1907   20.5470   54.8596 C   0  0
   69.5129   19.2010   55.0883 C   0  0
   69.3431   18.2834   54.0495 C   0  0
   69.5829   16.9427   54.1751 O   0  0
   69.8769   16.4443   55.4254 C   0  0
   70.1199   17.1999   56.5126 C   0  0
   70.0214   18.6870   56.3835 C   0  0
   69.8642   14.9740   55.4475 C   0  0
   70.7696   14.2380   54.6650 C   0  0
   70.7051   12.8422   54.6306 C   0  0
   68.9014   14.2979   56.2088 C   0  0
   70.4616   16.6901   57.7532 O   0  0
   70.3558   19.4147   57.3113 O   0  0
   69.2915   21.4732   55.8560 O   0  0
   68.1197   20.4411   51.3736 O   0  0
   68.8562   12.9126   56.1802 C   0  0
   69.7306   12.1920   55.3737 C   0  0
   69.1652   20.5195   50.3935 C   0  0
   68.5467   20.8241   49.0495 C   0  0
   69.0650   21.8333   48.2229 C   0  0
   68.4975   22.0901   46.9704 C   0  0
   67.4112   21.3338   46.5310 C   0  0
   66.8993   20.3233   47.3433 C   0  0
   67.4613   20.0635   48.5899 C   0  0
   67.9354   12.2821   56.9620 O   0  0
   69.6095   10.8392   55.2577 O   0  0
   65.5644   19.3840   46.7982 Cl  0  0
   68.4626   21.9966   53.4192 H   0  0
   68.7447   17.9606   52.0050 H   0  0
   71.5090   14.7520   54.0531 H   0  0
   71.3841   12.2709   54.0028 H   0  0
   68.1802   14.8427   56.8142 H   0  0
   70.6051   15.7338   57.6742 H   0  0
   69.0687   22.3623   55.5347 H   0  0
   69.7156   19.5736   50.3114 H   0  0
   69.8639   21.3160   50.6790 H   0  0
   69.9137   22.4290   48.5533 H   0  0
   68.8986   22.8799   46.3381 H   0  0
   66.9694   21.5372   45.5585 H   0  0
   67.0506   19.2716   49.2130 H   0  0
   68.3334   11.4459   57.2776 H   0  0
   68.6554   10.6527   55.3269 H   0  0
  1  2  2  0
  1  4  1  0
  1 31  1  0
  2  3  1  0
  2 18  1  0
  3  6  2  0
  3 32  1  0
  4  5  2  0
  4 17  1  0
  5  6  1  0
  5 10  1  0
  6  7  1  0
  7  8  1  0
  8  9  2  0
  8 11  1  0
  9 10  1  0
  9 15  1  0
 10 16  2  0
 11 12  1  0
 11 14  2  0
 12 13  2  0
 12 33  1  0
 13 20  1  0
 13 34  1  0
 14 19  1  0
 14 35  1  0
 15 36  1  0
 17 37  1  0
 18 21  1  0
 19 20  2  0
 19 28  1  0
 20 29  1  0
 21 22  1  0
 21 38  1  0
 21 39  1  0
 22 23  2  0
 22 27  1  0
 23 24  1  0
 23 40  1  0
 24 25  2  0
 24 41  1  0
 25 26  1  0
 25 42  1  0
 26 27  2  0
 26 30  1  0
 27 43  1  0
 28 44  1  0
 29 45  1  0
M  END
> <Name>
ligand_106

> <IC50 (nM)>
5200

$$$$
ligand_101
  SciTegic07132122123D

 36 37  0  0  0  0            999 V2000
   66.9561   19.7367   53.0257 C   0  0
   67.6917   20.5151   52.1288 C   0  0
   68.3464   19.9405   51.0323 C   0  0
   68.2804   18.5482   50.8976 C   0  0
   67.5290   17.7510   51.7837 C   0  0
   66.8611   18.3577   52.8461 C   0  0
   67.4542   16.2829   51.5063 C   0  0
   66.2466   15.4951   51.9416 C   0  0
   68.3380   15.7683   50.8160 O   0  0
   66.1654   15.1746   53.4038 C   0  0
   64.7994   15.3154   54.0716 C   0  0
   67.1192   14.8291   54.1001 O   0  0
   64.1088   16.2964   53.6436 O   0  0
   64.4711   14.4601   54.9504 O   0  5
   68.9842   20.7717   50.1234 N   0  0
   69.1256   20.4737   48.7078 C   0  0
   67.8644   20.8634   47.9643 C   0  0
   67.7596   22.0986   47.3008 C   0  0
   66.5573   22.4660   46.6880 C   0  0
   65.4589   21.6045   46.7396 C   0  0
   65.5523   20.3723   47.3742 C   0  0
   66.7521   20.0032   47.9802 C   0  0
   63.9762   22.0721   45.9994 Cl  0  0
   66.4369   20.2052   53.8583 H   0  0
   67.7204   21.5909   52.2806 H   0  0
   68.8034   18.0544   50.0834 H   0  0
   66.2643   17.7924   53.5547 H   0  0
   66.2533   14.5376   51.4063 H   0  0
   65.3567   16.0256   51.5894 H   0  0
   69.0389   21.7516   50.3707 H   0  0
   69.9657   21.0602   48.3162 H   0  0
   69.3855   19.4285   48.5093 H   0  0
   68.6038   22.7849   47.2717 H   0  0
   66.4788   23.4264   46.1847 H   0  0
   64.6989   19.7011   47.4163 H   0  0
   66.8064   19.0445   48.4920 H   0  0
  1  2  1  0
  1  6  2  0
  1 24  1  0
  2  3  2  0
  2 25  1  0
  3  4  1  0
  3 15  1  0
  4  5  2  0
  4 26  1  0
  5  6  1  0
  5  7  1  0
  6 27  1  0
  7  8  1  0
  7  9  2  0
  8 10  1  0
  8 28  1  0
  8 29  1  0
 10 11  1  0
 10 12  2  0
 11 13  2  0
 11 14  1  0
 15 16  1  0
 15 30  1  0
 16 17  1  0
 16 31  1  0
 16 32  1  0
 17 18  2  0
 17 22  1  0
 18 19  1  0
 18 33  1  0
 19 20  2  0
 19 34  1  0
 20 21  1  0
 20 23  1  0
 21 22  2  0
 21 35  1  0
 22 36  1  0
M  CHG  1  14  -1
M  END
> <Name>
ligand_101

> <IC50 (nM)>
11000

$$$$
ligand_53
  SciTegic07132122123D

 41 42  0  0  0  0            999 V2000
   69.6026   20.2657   53.2584 C   0  0
   70.4661   21.3586   53.4369 C   0  0
   70.5299   21.9993   54.6793 C   0  0
   69.7393   21.5521   55.7424 C   0  0
   68.8844   20.4576   55.5527 C   0  0
   68.8022   19.8077   54.3097 C   0  0
   71.2926   23.8292   55.9048 O   0  0
   72.1525   23.4922   53.9245 O   0  5
   67.8748   18.7480   54.1988 N   0  0
   67.6061   17.9537   53.0880 C   0  0
   68.2335   17.9707   52.0327 O   0  0
   66.3701   17.0707   53.2760 C   0  0
   66.6755   15.3171   52.9071 S   0  0
   67.7834   14.8871   54.2234 C   0  0
   69.2049   13.3427   55.1497 C   0  0
   69.0318   15.4965   56.0390 C   0  0
   69.6389   14.2622   56.0890 C   0  0
   68.2702   13.6316   54.2230 N   0  0
   68.0960   15.8332   55.1281 N   0  0
   69.7447   12.0789   55.0317 N   0  0
   70.6455   13.9288   57.1098 C   0  0
   70.9050   12.7904   57.4679 O   0  0
   71.2193   15.0634   57.5846 O   0  0
   72.2348   14.8400   58.5726 C   0  0
   72.7854   16.1878   58.9956 C   0  0
   71.3986   23.1652   54.8573 N   0  3
   69.5705   19.8013   52.2763 H   0  0
   71.0621   21.7068   52.5937 H   0  0
   69.7640   22.0538   56.7091 H   0  0
   68.2695   20.1328   56.3893 H   0  0
   67.3634   18.5177   55.0422 H   0  0
   65.9447   17.1690   54.2798 H   0  0
   65.6100   17.4363   52.5768 H   0  0
   69.2793   16.2845   56.7448 H   0  0
   69.3356   11.4948   54.3085 H   0  0
   70.0745   11.5873   55.8622 H   0  0
   71.8003   14.3286   59.4388 H   0  0
   73.0376   14.2284   58.1458 H   0  0
   73.5650   16.0707   59.7534 H   0  0
   71.9884   16.8192   59.4022 H   0  0
   73.2050   16.7198   58.1353 H   0  0
  1  2  2  0
  1  6  1  0
  1 27  1  0
  2  3  1  0
  2 28  1  0
  3  4  2  0
  3 26  1  0
  4  5  1  0
  4 29  1  0
  5  6  2  0
  5 30  1  0
  6  9  1  0
  7 26  2  0
  8 26  1  0
  9 10  1  0
  9 31  1  0
 10 11  2  0
 10 12  1  0
 12 13  1  0
 12 32  1  0
 12 33  1  0
 13 14  1  0
 14 18  2  0
 14 19  1  0
 15 17  2  0
 15 18  1  0
 15 20  1  0
 16 17  1  0
 16 19  2  0
 16 34  1  0
 17 21  1  0
 20 35  1  0
 20 36  1  0
 21 22  2  0
 21 23  1  0
 23 24  1  0
 24 25  1  0
 24 37  1  0
 24 38  1  0
 25 39  1  0
 25 40  1  0
 25 41  1  0
M  CHG  2   8  -1  26   1
M  END
> <Name>
ligand_53

> <IC50 (nM)>
250000

$$$$
ligand_50
  SciTegic07132122123D

 43 44  0  0  0  0            999 V2000
   65.8965   22.2730   46.4208 C   0  0
   67.2022   21.9578   46.0185 C   0  0
   68.0627   21.2727   46.8833 C   0  0
   67.6400   20.8920   48.1637 C   0  0
   66.3404   21.2033   48.5619 C   0  0
   65.4766   21.8912   47.7011 C   0  0
   65.0003   23.0502   45.4952 C   0  0
   65.2786   24.3889   45.4949 F   0  0
   65.1256   22.6672   44.1891 F   0  0
   63.6689   22.9569   45.7732 F   0  0
   68.3998   19.7773   50.2829 C   0  0
   68.5719   20.2102   48.9731 N   0  0
   67.4021   19.9567   50.9759 O   0  0
   69.6242   19.0498   50.8236 C   0  0
   70.3474   20.0149   52.1811 S   0  0
   69.6437   19.2134   53.5479 C   0  0
   68.7310   17.4564   54.6915 C   0  0
   68.7199   18.1298   55.8537 C   0  0
   69.3005   19.4779   55.8900 C   0  0
   69.6596   19.9801   54.6731 N   0  0
   69.2538   17.9853   53.5244 N   0  0
   69.4471   20.0755   56.9495 O   0  0
   68.1273   16.0509   54.6191 C   0  0
   67.2191   16.0101   53.5044 O   0  0
   66.5054   14.7799   53.4702 C   0  0
   69.1546   15.0650   54.4654 O   0  0
   69.8087   14.7478   55.6823 C   0  0
   67.5527   22.2541   45.0274 H   0  0
   69.0713   21.0550   46.5413 H   0  0
   65.9612   20.9283   49.5418 H   0  0
   64.4733   22.1236   48.0539 H   0  0
   69.4729   20.0372   48.5460 H   0  0
   69.3369   18.0322   51.0999 H   0  0
   70.3921   18.9557   50.0495 H   0  0
   68.3190   17.7387   56.7774 H   0  0
   70.0413   20.9117   54.6410 H   0  0
   67.5453   15.8425   55.5276 H   0  0
   65.8091   14.8146   52.6276 H   0  0
   65.9283   14.6413   54.3896 H   0  0
   67.1850   13.9363   53.3174 H   0  0
   70.5321   13.9523   55.4836 H   0  0
   69.0914   14.3825   56.4238 H   0  0
   70.3519   15.6117   56.0749 H   0  0
  1  2  2  0
  1  6  1  0
  1  7  1  0
  2  3  1  0
  2 28  1  0
  3  4  2  0
  3 29  1  0
  4  5  1  0
  4 12  1  0
  5  6  2  0
  5 30  1  0
  6 31  1  0
  7  8  1  0
  7  9  1  0
  7 10  1  0
 11 12  1  0
 11 13  2  0
 11 14  1  0
 12 32  1  0
 14 15  1  0
 14 33  1  0
 14 34  1  0
 15 16  1  0
 16 20  1  0
 16 21  2  0
 17 18  2  0
 17 21  1  0
 17 23  1  0
 18 19  1  0
 18 35  1  0
 19 20  1  0
 19 22  2  0
 20 36  1  0
 23 24  1  0
 23 26  1  0
 23 37  1  0
 24 25  1  0
 25 38  1  0
 25 39  1  0
 25 40  1  0
 26 27  1  0
 27 41  1  0
 27 42  1  0
 27 43  1  0
M  END
> <Name>
ligand_50

> <IC50 (nM)>
200000

$$$$
ligand_64
  SciTegic07132122123D

 30 31  0  0  0  0            999 V2000
   70.6672   20.0489   54.2908 C   0  0
   70.4959   21.3671   54.7180 C   0  0
   69.6042   21.6548   55.7513 C   0  0
   68.8747   20.6332   56.3612 C   0  0
   69.0329   19.3131   55.9320 C   0  0
   69.9211   19.0296   54.8877 C   0  0
   69.4103   23.2793   56.2854 Cl  0  0
   70.1387   17.3441   54.3709 S   0  0
   70.3051   16.5710   55.5890 O   0  0
   71.1631   17.2922   53.3477 O   0  0
   68.6286   16.7892   53.6158 C   0  0
   68.3480   16.9881   52.2636 C   0  0
   67.7442   16.0187   54.3846 C   0  0
   66.3054   15.6785   52.4456 C   0  0
   67.1931   16.4452   51.6751 C   0  0
   66.5890   15.4802   53.8062 C   0  0
   69.1877   17.8084   51.4140 N   0  3
   69.6573   17.2758   50.4024 O   0  0
   69.2953   18.9982   51.7317 O   0  5
   65.0492   15.1083   51.8266 C   0  0
   64.0316   16.0101   51.8156 F   0  0
   65.2261   14.7207   50.5338 F   0  0
   64.5791   14.0132   52.4837 F   0  0
   71.3714   19.8347   53.4885 H   0  0
   71.0615   22.1615   54.2392 H   0  0
   68.1903   20.8597   57.1753 H   0  0
   68.4786   18.5202   56.4286 H   0  0
   67.9485   15.8126   55.4355 H   0  0
   66.9823   16.6174   50.6181 H   0  0
   65.9139   14.8856   54.4240 H   0  0
  1  2  2  0
  1  6  1  0
  1 24  1  0
  2  3  1  0
  2 25  1  0
  3  4  2  0
  3  7  1  0
  4  5  1  0
  4 26  1  0
  5  6  2  0
  5 27  1  0
  6  8  1  0
  8  9  2  0
  8 10  2  0
  8 11  1  0
 11 12  2  0
 11 13  1  0
 12 15  1  0
 12 17  1  0
 13 16  2  0
 13 28  1  0
 14 15  2  0
 14 16  1  0
 14 20  1  0
 15 29  1  0
 16 30  1  0
 17 18  2  0
 17 19  1  0
 20 21  1  0
 20 22  1  0
 20 23  1  0
M  CHG  2  17   1  19  -1
M  END
> <Name>
ligand_64

> <IC50 (nM)>
12000

$$$$
ligand_115
  SciTegic07132122123D

 46 50  0  0  0  0            999 V2000
   72.0953   18.8028   53.7918 C   0  0
   71.5685   17.6624   54.3880 C   0  0
   70.2695   17.6706   54.9239 C   0  0
   71.3335   19.9673   53.7352 C   0  0
   70.0455   20.0154   54.2912 C   0  0
   69.4969   18.8635   54.9104 C   0  0
   68.2105   18.9764   55.4900 C   0  0
   67.4868   20.1675   55.4375 C   0  0
   68.0310   21.2800   54.8110 C   0  0
   69.3021   21.2054   54.2442 C   0  0
   69.7740   16.4193   55.4987 C   0  0
   68.7749   15.5875   54.9838 N   0  0
   68.7247   14.5459   55.8958 C   0  0
   69.5063   14.7848   56.9208 N   0  0
   70.1793   15.9444   56.6637 N   0  0
   67.9504   13.0113   55.6418 S   0  0
   69.2334   12.1737   54.6539 C   0  0
   67.9683   15.7887   53.8238 C   0  0
   68.5039   16.3627   52.6646 C   0  0
   67.6865   16.6007   51.5551 C   0  0
   66.3324   16.2740   51.5942 C   0  0
   65.7916   15.7009   52.7423 C   0  0
   66.6045   15.4554   53.8532 C   0  0
   70.5586   12.0840   55.3416 C   0  0
   70.8218   11.4959   56.5655 C   0  0
   72.4770   11.6704   56.9580 S   0  0
   72.7365   12.4876   55.4720 C   0  0
   71.6747   12.6330   54.7158 N   0  0
   73.9523   12.9264   55.1292 N   0  0
   73.0991   18.7865   53.3754 H   0  0
   72.1711   16.7560   54.4349 H   0  0
   71.7622   20.8509   53.2648 H   0  0
   67.7576   18.1346   56.0089 H   0  0
   66.5013   20.2234   55.8924 H   0  0
   67.4723   22.2103   54.7706 H   0  0
   69.7114   22.0948   53.7685 H   0  0
   68.8773   11.1630   54.4276 H   0  0
   69.3372   12.6985   53.6978 H   0  0
   69.5580   16.6094   52.5769 H   0  0
   68.1103   17.0464   50.6580 H   0  0
   65.6962   16.4730   50.7339 H   0  0
   64.7300   15.4619   52.7784 H   0  0
   66.1317   15.0550   54.7473 H   0  0
   70.1327   11.0111   57.2421 H   0  0
   74.1069   13.3395   54.2207 H   0  0
   74.7560   12.7917   55.7305 H   0  0
  1  2  2  0
  1  4  1  0
  1 30  1  0
  2  3  1  0
  2 31  1  0
  3  6  2  0
  3 11  1  0
  4  5  2  0
  4 32  1  0
  5  6  1  0
  5 10  1  0
  6  7  1  0
  7  8  2  0
  7 33  1  0
  8  9  1  0
  8 34  1  0
  9 10  2  0
  9 35  1  0
 10 36  1  0
 11 12  1  0
 11 15  2  0
 12 13  1  0
 12 18  1  0
 13 14  2  0
 13 16  1  0
 14 15  1  0
 16 17  1  0
 17 24  1  0
 17 37  1  0
 17 38  1  0
 18 19  2  0
 18 23  1  0
 19 20  1  0
 19 39  1  0
 20 21  2  0
 20 40  1  0
 21 22  1  0
 21 41  1  0
 22 23  2  0
 22 42  1  0
 23 43  1  0
 24 25  2  0
 24 28  1  0
 25 26  1  0
 25 44  1  0
 26 27  1  0
 27 28  2  0
 27 29  1  0
 29 45  1  0
 29 46  1  0
M  END
> <Name>
ligand_115

> <IC50 (nM)>
58350

$$$$
ligand_56
  SciTegic07132122123D

 45 47  0  0  0  0            999 V2000
   73.0734   10.5402   54.4127 C   0  0
   73.8501    9.4340   54.0499 C   0  0
   73.4794    8.1617   54.4973 C   0  0
   72.3399    7.9903   55.2911 C   0  0
   71.5720    9.1074   55.6461 C   0  0
   71.9345   10.3885   55.2179 C   0  0
   75.3360    7.1670   53.4963 O   0  0
   73.9111    5.8775   54.5360 O   0  5
   71.2336   11.5582   55.5556 N   0  0
   70.1163   11.6914   56.3643 C   0  0
   69.5074   10.7671   56.8999 O   0  0
   69.6077   13.1222   56.4603 C   0  0
   70.9759   14.3083   56.6679 S   0  0
   70.0752   15.7473   56.2743 C   0  0
   69.2966   17.7141   57.0940 C   0  0
   68.7953   16.9643   54.8447 C   0  0
   69.5608   15.8595   55.0994 N   0  0
   70.0019   16.5925   57.2842 N   0  5
   69.1842   18.5994   57.9439 O   0  0
   68.5974   17.9042   55.7847 C   0  0
   67.7498   19.0282   55.6128 C   0  0
   67.0474   19.9324   55.4045 N   0  0
   68.1773   16.9615   53.4901 C   0  0
   67.6326   15.7605   52.9939 C   0  0
   68.1974   18.0774   52.6463 C   0  0
   67.6452   18.0063   51.3657 C   0  0
   67.0773   16.8174   50.9027 C   0  0
   67.0691   15.6866   51.7169 C   0  0
   66.5816   14.4539   51.3703 O   0  0
   65.7160   14.4217   50.2411 C   0  0
   74.2917    6.9968   54.1490 N   0  3
   73.3683   11.5313   54.0692 H   0  0
   74.7364    9.5859   53.4381 H   0  0
   72.0441    7.0046   55.6509 H   0  0
   70.6992    8.9433   56.2720 H   0  0
   71.6073   12.4440   55.2202 H   0  0
   68.9343   13.2052   57.3188 H   0  0
   69.0442   13.3255   55.5442 H   0  0
   67.6590   14.8629   53.6120 H   0  0
   68.6623   19.0073   52.9651 H   0  0
   67.6745   18.8801   50.7230 H   0  0
   66.6753   16.7995   49.8964 H   0  0
   65.2842   13.4180   50.1806 H   0  0
   66.2750   14.5986   49.3165 H   0  0
   64.8903   15.1336   50.3472 H   0  0
  1  2  2  0
  1  6  1  0
  1 32  1  0
  2  3  1  0
  2 33  1  0
  3  4  2  0
  3 31  1  0
  4  5  1  0
  4 34  1  0
  5  6  2  0
  5 35  1  0
  6  9  1  0
  7 31  2  0
  8 31  1  0
  9 10  1  0
  9 36  1  0
 10 11  2  0
 10 12  1  0
 12 13  1  0
 12 37  1  0
 12 38  1  0
 13 14  1  0
 14 17  2  0
 14 18  1  0
 15 18  1  0
 15 19  2  0
 15 20  1  0
 16 17  1  0
 16 20  2  0
 16 23  1  0
 20 21  1  0
 21 22  3  0
 23 24  2  0
 23 25  1  0
 24 28  1  0
 24 39  1  0
 25 26  2  0
 25 40  1  0
 26 27  1  0
 26 41  1  0
 27 28  2  0
 27 42  1  0
 28 29  1  0
 29 30  1  0
 30 43  1  0
 30 44  1  0
 30 45  1  0
M  CHG  3   8  -1  18  -1  31   1
M  END
> <Name>
ligand_56

> <IC50 (nM)>
300000

$$$$
ligand_105
  SciTegic07132122123D

 47 51  0  0  0  0            999 V2000
   69.1859   20.7791   53.5396 C   0  0
   68.7792   19.8607   52.5678 C   0  0
   68.7137   18.5124   52.9049 C   0  0
   69.4992   20.3655   54.8405 C   0  0
   69.4231   19.0159   55.1914 C   0  0
   69.0553   18.0973   54.2057 C   0  0
   69.0331   16.7419   54.4285 O   0  0
   69.5427   16.2636   55.6204 C   0  0
   69.8574   17.0244   56.6870 C   0  0
   69.7169   18.5051   56.5589 C   0  0
   69.7543   14.8085   55.5995 C   0  0
   68.6646   13.9160   55.4946 C   0  0
   68.8738   12.5313   55.4680 C   0  0
   71.0645   14.3099   55.6623 C   0  0
   70.3114   16.5266   57.8991 O   0  0
   69.8339   19.2350   57.5352 O   0  0
   69.9177   21.3081   55.7362 O   0  0
   68.5367   20.4133   51.3425 O   0  0
   67.8256   19.6505   50.3663 C   0  0
   67.8334   20.4230   49.0603 C   0  0
   69.0535   20.6524   48.4025 C   0  0
   69.0979   21.3492   47.1929 C   0  0
   67.9203   21.8259   46.6206 C   0  0
   66.6920   21.6124   47.2553 C   0  0
   66.6510   20.9132   48.4747 C   0  0
   65.4901   22.1128   46.6417 C   0  0
   64.5286   22.5210   46.1341 N   0  0
   71.2363   12.9457   55.6382 C   0  0
   70.1736   12.0798   55.5439 C   0  0
   70.5686   10.7796   55.5350 O   0  0
   71.9982   10.9272   55.6828 C   0  0
   72.4308   12.3041   55.7052 O   0  0
   69.2638   21.8276   53.2608 H   0  0
   68.4373   17.7547   52.1793 H   0  0
   67.6483   14.3012   55.4319 H   0  0
   68.0465   11.8333   55.3879 H   0  0
   71.9267   14.9672   55.7250 H   0  0
   70.2598   15.5581   57.8830 H   0  0
   69.7416   22.1912   55.3672 H   0  0
   66.7987   19.4802   50.7099 H   0  0
   68.3098   18.6839   50.1844 H   0  0
   69.9837   20.2904   48.8395 H   0  0
   70.0533   21.5245   46.7042 H   0  0
   67.9682   22.3697   45.6788 H   0  0
   65.6947   20.7536   48.9707 H   0  0
   72.4899   10.4196   54.8452 H   0  0
   72.3070   10.4453   56.6179 H   0  0
  1  2  2  0
  1  4  1  0
  1 33  1  0
  2  3  1  0
  2 18  1  0
  3  6  2  0
  3 34  1  0
  4  5  2  0
  4 17  1  0
  5  6  1  0
  5 10  1  0
  6  7  1  0
  7  8  1  0
  8  9  2  0
  8 11  1  0
  9 10  1  0
  9 15  1  0
 10 16  2  0
 11 12  2  0
 11 14  1  0
 12 13  1  0
 12 35  1  0
 13 29  2  0
 13 36  1  0
 14 28  2  0
 14 37  1  0
 15 38  1  0
 17 39  1  0
 18 19  1  0
 19 20  1  0
 19 40  1  0
 19 41  1  0
 20 21  2  0
 20 25  1  0
 21 22  1  0
 21 42  1  0
 22 23  2  0
 22 43  1  0
 23 24  1  0
 23 44  1  0
 24 25  2  0
 24 26  1  0
 25 45  1  0
 26 27  3  0
 28 29  1  0
 28 32  1  0
 29 30  1  0
 30 31  1  0
 31 32  1  0
 31 46  1  0
 31 47  1  0
M  END
> <Name>
ligand_105

> <IC50 (nM)>
42900

$$$$
ligand_76
  SciTegic07132122123D

 37 39  0  0  0  0            999 V2000
   71.1351   13.1149   55.8066 C   0  0
   71.6503   12.0572   56.5334 C   0  0
   72.0966   10.9905   55.7036 C   0  0
   71.9130   11.2638   54.3677 C   0  0
   71.2015   12.7956   54.1219 S   0  0
   70.1317   15.2598   55.4004 N   0  0
   69.6010   16.4924   55.7297 C   0  0
   68.7398   18.5284   55.8129 C   0  0
   69.1379   17.5136   54.9246 C   0  0
   69.4457   16.9417   57.0142 N   0  0
   68.8979   18.1665   57.0907 N   0  0
   70.5632   14.5940   57.5543 O   0  0
   70.5984   14.3582   56.3446 C   0  0
   68.0878   20.0948   55.4013 S   0  0
   68.1187   20.9399   56.9969 C   0  0
   67.5111   18.0312   52.6720 C   0  0
   65.1262   17.6549   52.5897 C   0  0
   66.3937   17.2733   53.0406 C   0  0
   67.3717   19.1533   51.8480 C   0  0
   66.1025   19.5273   51.4013 C   0  0
   64.9854   18.7789   51.7727 C   0  0
   70.0836   18.5697   52.8678 O   0  0
   69.1220   17.5446   53.2177 S   0  0
   69.3159   16.1591   52.8251 O   0  0
   63.4244   19.2434   51.2096 Cl  0  0
   71.7057   12.0545   57.6169 H   0  0
   72.5342   10.0704   56.0692 H   0  0
   72.1654   10.6354   53.5238 H   0  0
   70.1901   15.0095   54.4118 H   0  0
   69.6966   16.4444   57.8671 H   0  0
   67.7672   21.9666   56.8621 H   0  0
   69.1352   20.9773   57.3987 H   0  0
   67.4570   20.4454   57.7136 H   0  0
   64.2516   17.0734   52.8718 H   0  0
   66.4972   16.3877   53.6636 H   0  0
   68.2368   19.7440   51.5512 H   0  0
   65.9937   20.4005   50.7640 H   0  0
  1  2  2  0
  1  5  1  0
  1 13  1  0
  2  3  1  0
  2 26  1  0
  3  4  2  0
  3 27  1  0
  4  5  1  0
  4 28  1  0
  6  7  1  0
  6 13  1  0
  6 29  1  0
  7  9  2  0
  7 10  1  0
  8  9  1  0
  8 11  2  0
  8 14  1  0
  9 23  1  0
 10 11  1  0
 10 30  1  0
 12 13  2  0
 14 15  1  0
 15 31  1  0
 15 32  1  0
 15 33  1  0
 16 18  2  0
 16 19  1  0
 16 23  1  0
 17 18  1  0
 17 21  2  0
 17 34  1  0
 18 35  1  0
 19 20  2  0
 19 36  1  0
 20 21  1  0
 20 37  1  0
 21 25  1  0
 22 23  2  0
 23 24  2  0
M  END
> <Name>
ligand_76

> <IC50 (nM)>
15000

$$$$
ligand_102
  SciTegic07132122123D

 46 50  0  0  0  0            999 V2000
   67.7031   18.0279   53.7652 C   0  0
   68.8896   18.6263   54.1846 C   0  0
   69.8337   17.8857   54.8890 C   0  0
   67.4440   16.6911   54.1062 C   0  0
   68.3714   15.9417   54.8425 C   0  0
   69.5609   16.5562   55.2276 C   0  0
   70.5254   15.9253   55.9635 O   0  0
   70.2430   14.6950   56.5420 C   0  0
   69.1522   13.9722   56.2320 C   0  0
   68.1640   14.5295   55.2616 C   0  0
   71.2619   14.3223   57.5539 C   0  0
   71.7265   13.0010   57.7563 C   0  0
   72.7283   12.7158   58.7005 C   0  0
   71.8271   15.3602   58.3190 C   0  0
   68.8513   12.7375   56.7806 O   0  0
   67.2390   13.8022   54.9101 O   0  0
   66.2556   16.1360   53.7370 O   0  0
   69.1452   19.9289   53.8440 O   0  0
   69.0223   20.8037   54.9799 C   0  0
   69.9682   21.9867   54.8935 C   0  0
   69.6232   23.1987   55.5197 C   0  0
   70.5143   24.2779   55.5427 C   0  0
   71.7631   24.1613   54.9372 C   0  0
   72.1153   22.9661   54.3110 C   0  0
   71.2323   21.8821   54.2908 C   0  0
   73.6620   22.8461   53.5587 Cl  0  0
   72.8149   15.0548   59.2258 C   0  0
   73.2555   13.7692   59.4159 C   0  0
   74.2367   13.6956   60.3556 O   0  0
   74.3760   15.0923   60.7047 C   0  0
   73.4596   15.9592   60.0071 O   0  0
   66.9872   18.6107   53.1906 H   0  0
   70.7766   18.3381   55.1856 H   0  0
   71.3169   12.1820   57.1685 H   0  0
   73.0872   11.7031   58.8571 H   0  0
   71.5111   16.3926   58.2091 H   0  0
   68.0144   12.4669   56.3422 H   0  0
   65.7648   16.7244   53.1403 H   0  0
   69.2191   20.2909   55.9308 H   0  0
   67.9869   21.1658   54.9931 H   0  0
   68.6504   23.3170   55.9958 H   0  0
   70.2317   25.2101   56.0273 H   0  0
   72.4474   25.0082   54.9451 H   0  0
   71.5331   20.9553   53.8078 H   0  0
   74.2073   15.1993   61.7824 H   0  0
   75.4009   15.4083   60.4775 H   0  0
  1  2  2  0
  1  4  1  0
  1 32  1  0
  2  3  1  0
  2 18  1  0
  3  6  2  0
  3 33  1  0
  4  5  2  0
  4 17  1  0
  5  6  1  0
  5 10  1  0
  6  7  1  0
  7  8  1  0
  8  9  2  0
  8 11  1  0
  9 10  1  0
  9 15  1  0
 10 16  2  0
 11 12  1  0
 11 14  2  0
 12 13  2  0
 12 34  1  0
 13 28  1  0
 13 35  1  0
 14 27  1  0
 14 36  1  0
 15 37  1  0
 17 38  1  0
 18 19  1  0
 19 20  1  0
 19 39  1  0
 19 40  1  0
 20 21  2  0
 20 25  1  0
 21 22  1  0
 21 41  1  0
 22 23  2  0
 22 42  1  0
 23 24  1  0
 23 43  1  0
 24 25  2  0
 24 26  1  0
 25 44  1  0
 27 28  2  0
 27 31  1  0
 28 29  1  0
 29 30  1  0
 30 31  1  0
 30 45  1  0
 30 46  1  0
M  END
> <Name>
ligand_102

> <IC50 (nM)>
15400

$$$$
ligand_42
  SciTegic07132122123D

 48 50  0  0  0  0            999 V2000
   69.0358   19.9715   52.3765 C   0  0
   69.0496   18.9257   51.4418 C   0  0
   69.2218   19.1694   50.0718 C   0  0
   69.3972   20.4784   49.6340 C   0  0
   69.4510   21.5258   50.5576 C   0  0
   69.2612   21.2712   51.9212 C   0  0
   67.8802   21.4342   47.6380 N   0  0
   69.4653   20.8576   47.9082 S   0  0
   70.2949   22.0251   47.6857 O   0  0
   69.5933   19.6680   47.0978 O   0  0
   68.7481   19.6465   53.7181 N   0  0
   68.5638   20.5079   54.7869 C   0  0
   68.7394   21.7268   54.7616 O   0  0
   67.9951   19.8320   56.0298 C   0  0
   69.2631   19.0012   57.0102 S   0  0
   69.3238   17.4272   56.2535 C   0  0
   70.5235   15.5433   56.2539 C   0  0
   68.8648   15.9759   54.5699 C   0  0
   69.7512   15.0949   55.0610 C   0  0
   68.7305   17.2316   55.1179 N   0  0
   70.0343   16.5613   56.9672 N   0  5
   71.5260   14.9063   56.5738 O   0  0
   69.9683   13.7906   54.5460 C   0  0
   70.1059   12.7075   54.1395 N   0  0
   67.9786   15.6828   53.4129 C   0  0
   66.6068   15.9656   53.5146 C   0  0
   68.4674   15.1894   52.1950 C   0  0
   67.6030   14.9610   51.1227 C   0  0
   66.2398   15.2361   51.2463 C   0  0
   65.7352   15.7438   52.4432 C   0  0
   64.4284   16.0655   52.6909 O   0  0
   63.4990   15.8294   51.6424 C   0  0
   68.8926   17.9045   51.7732 H   0  0
   69.1910   18.3401   49.3688 H   0  0
   69.6199   22.5480   50.2327 H   0  0
   69.2911   22.1131   52.6064 H   0  0
   67.9143   22.4428   47.4654 H   0  0
   67.3004   21.1738   48.4424 H   0  0
   68.6628   18.6527   53.9577 H   0  0
   67.1744   19.1596   55.7591 H   0  0
   67.5556   20.6168   56.6557 H   0  0
   66.2103   16.3656   54.4468 H   0  0
   69.5289   14.9913   52.0600 H   0  0
   67.9970   14.5701   50.1879 H   0  0
   65.6024   15.0457   50.3901 H   0  0
   62.5081   16.1238   52.0013 H   0  0
   63.4563   14.7663   51.3832 H   0  0
   63.7298   16.4422   50.7647 H   0  0
  1  2  2  0
  1  6  1  0
  1 11  1  0
  2  3  1  0
  2 33  1  0
  3  4  2  0
  3 34  1  0
  4  5  1  0
  4  8  1  0
  5  6  2  0
  5 35  1  0
  6 36  1  0
  7  8  1  0
  7 37  1  0
  7 38  1  0
  8  9  2  0
  8 10  2  0
 11 12  1  0
 11 39  1  0
 12 13  2  0
 12 14  1  0
 14 15  1  0
 14 40  1  0
 14 41  1  0
 15 16  1  0
 16 20  2  0
 16 21  1  0
 17 19  1  0
 17 21  1  0
 17 22  2  0
 18 19  2  0
 18 20  1  0
 18 25  1  0
 19 23  1  0
 23 24  3  0
 25 26  2  0
 25 27  1  0
 26 30  1  0
 26 42  1  0
 27 28  2  0
 27 43  1  0
 28 29  1  0
 28 44  1  0
 29 30  2  0
 29 45  1  0
 30 31  1  0
 31 32  1  0
 32 46  1  0
 32 47  1  0
 32 48  1  0
M  CHG  1  21  -1
M  END
> <Name>
ligand_42

> <IC50 (nM)>
40000

$$$$
ligand_41
  SciTegic07132122123D

 38 39  0  0  0  0            999 V2000
   67.8734   20.6278   49.7181 C   0  0
   67.6110   20.0891   48.4566 C   0  0
   66.6785   20.6911   47.6041 C   0  0
   66.0065   21.8409   48.0044 C   0  0
   66.2508   22.3868   49.2608 C   0  0
   67.1792   21.7787   50.1144 C   0  0
   68.8065   20.0861   50.6260 N   0  0
   69.5747   18.9454   50.4614 C   0  0
   69.5510   18.1885   49.4937 O   0  0
   70.5199   18.6757   51.6204 C   0  0
   69.6330   17.8873   52.9916 S   0  0
   69.1187   19.2688   53.9019 C   0  0
   68.3004   21.2416   55.5517 C   0  0
   68.1665   19.8465   55.9967 C   0  0
   68.8320   21.4797   54.3424 C   0  0
   69.2272   20.4835   53.4733 N   0  0
   68.6027   18.9181   55.1060 N   0  0
   64.8783   22.5883   46.9405 Cl  0  0
   67.7079   19.5634   57.0955 O   0  0
   69.0187   22.8992   53.8538 C   0  0
   70.4217   23.4633   54.1035 C   0  0
   71.5158   22.7687   53.3055 C   0  0
   68.1150   19.1977   48.0966 H   0  0
   66.4890   20.2501   46.6306 H   0  0
   65.7260   23.2819   49.5831 H   0  0
   67.3491   22.2192   51.0922 H   0  0
   68.9073   20.5664   51.5205 H   0  0
   71.2892   17.9787   51.2707 H   0  0
   71.0383   19.5906   51.9226 H   0  0
   67.9834   22.0152   56.2380 H   0  0
   68.5392   17.9447   55.3593 H   0  0
   68.7850   22.9542   52.7844 H   0  0
   68.2915   23.5560   54.3492 H   0  0
   70.4179   24.5257   53.8307 H   0  0
   70.6645   23.4134   55.1717 H   0  0
   72.4655   23.2982   53.4329 H   0  0
   71.2766   22.7546   52.2374 H   0  0
   71.6665   21.7390   53.6423 H   0  0
  1  2  2  0
  1  6  1  0
  1  7  1  0
  2  3  1  0
  2 23  1  0
  3  4  2  0
  3 24  1  0
  4  5  1  0
  4 18  1  0
  5  6  2  0
  5 25  1  0
  6 26  1  0
  7  8  1  0
  7 27  1  0
  8  9  2  0
  8 10  1  0
 10 11  1  0
 10 28  1  0
 10 29  1  0
 11 12  1  0
 12 16  2  0
 12 17  1  0
 13 14  1  0
 13 15  2  0
 13 30  1  0
 14 17  1  0
 14 19  2  0
 15 16  1  0
 15 20  1  0
 17 31  1  0
 20 21  1  0
 20 32  1  0
 20 33  1  0
 21 22  1  0
 21 34  1  0
 21 35  1  0
 22 36  1  0
 22 37  1  0
 22 38  1  0
M  END
> <Name>
ligand_41

> <IC50 (nM)>
30000

$$$$
ligand_55
  SciTegic07132122123D

 44 46  0  0  0  0            999 V2000
   69.1629   18.3631   55.4664 C   0  0
   70.2996   17.8304   56.0931 C   0  0
   70.5823   16.4577   56.0580 C   0  0
   69.7386   15.5713   55.3968 C   0  0
   68.6069   16.0742   54.7674 C   0  0
   68.3274   17.4503   54.8023 C   0  0
   70.1282   14.2634   55.4376 O   0  0
   69.2736   13.3141   54.8031 C   0  0
   69.8851   11.9368   54.9875 C   0  0
   69.4833   20.6709   56.3471 C   0  0
   67.9794   20.3980   54.6563 C   0  0
   67.9865   21.8757   54.9098 C   0  0
   68.9465   22.0483   56.0598 C   0  0  2  0  0  0
   68.8793   19.7678   55.4910 N   0  0
   70.2750   20.4546   57.2578 O   0  0
   67.2499   19.9170   53.7968 O   0  0
   71.3366   22.4648   54.6618 C   0  0
   73.4321   22.3088   53.7444 C   0  0
   73.0278   21.2568   52.9469 C   0  0
   71.7089   20.8642   53.0627 C   0  0
   70.8492   21.4650   53.9109 N   0  0
   72.5958   22.9197   54.6054 N   0  0
   71.1850   19.7216   52.2448 C   0  0
   74.8401   22.8206   53.6733 C   0  0
   70.2441   23.2974   55.7863 S   0  0
   71.0214   18.4580   56.6078 H   0  0
   71.4755   16.0840   56.5538 H   0  0
   67.9105   15.4309   54.2391 H   0  0
   67.4143   17.7660   54.3059 H   0  0
   68.2791   13.3283   55.2641 H   0  0
   69.1955   13.5294   53.7312 H   0  0
   69.2649   11.1687   54.5170 H   0  0
   69.9924   11.7019   56.0517 H   0  0
   70.8881   11.8986   54.5499 H   0  0
   66.9758   22.1926   55.1888 H   0  0
   68.3856   22.3680   56.9462 H   0  0
   68.2754   22.3995   53.9935 H   0  0
   73.7099   20.7670   52.2630 H   0  0
   71.3745   19.8966   51.1812 H   0  0
   70.1050   19.6073   52.3806 H   0  0
   71.6694   18.7885   52.5487 H   0  0
   75.0587   23.1857   52.6651 H   0  0
   75.5454   22.0238   53.9289 H   0  0
   74.9904   23.6470   54.3755 H   0  0
  1  2  2  0
  1  6  1  0
  1 14  1  0
  2  3  1  0
  2 26  1  0
  3  4  2  0
  3 27  1  0
  4  5  1  0
  4  7  1  0
  5  6  2  0
  5 28  1  0
  6 29  1  0
  7  8  1  0
  8  9  1  0
  8 30  1  0
  8 31  1  0
  9 32  1  0
  9 33  1  0
  9 34  1  0
 10 13  1  0
 10 14  1  0
 10 15  2  0
 11 12  1  0
 11 14  1  0
 11 16  2  0
 12 13  1  0
 12 35  1  0
 12 37  1  0
 13 25  1  0
 13 36  1  0
 17 21  1  0
 17 22  2  0
 17 25  1  0
 18 19  2  0
 18 22  1  0
 18 24  1  0
 19 20  1  0
 19 38  1  0
 20 21  2  0
 20 23  1  0
 23 39  1  0
 23 40  1  0
 23 41  1  0
 24 42  1  0
 24 43  1  0
 24 44  1  0
M  END
> <Name>
ligand_55

> <IC50 (nM)>
300000

$$$$
ligand_54
  SciTegic07132122123D

 44 46  0  0  0  0            999 V2000
   71.0964   21.4160   54.1687 C   0  0
   71.6898   22.0383   53.0565 C   0  0
   72.5175   23.1730   53.1788 C   0  0
   72.7794   23.7303   54.4239 C   0  0
   72.2157   23.1206   55.5420 C   0  0
   71.3907   21.9848   55.4182 C   0  0
   73.5479   24.8360   54.6769 O   0  0
   74.0745   25.5359   53.5490 C   0  0
   74.8398   26.7424   54.0620 C   0  0
   69.4500   19.7405   55.0399 C   0  0
   70.0280   19.5817   52.8536 C   0  0
   68.9029   18.6074   53.0338 C   0  0
   68.7417   18.5033   54.5302 C   0  0  1  0  0  0
   70.2269   20.2767   54.0281 N   0  0
   69.2895   20.1527   56.1833 O   0  0
   70.5969   19.6938   51.7752 O   0  0
   68.3040   15.7811   54.9085 C   0  0
   66.3576   15.1060   53.8942 C   0  0
   66.4811   13.8452   54.4431 C   0  0
   67.5874   13.6238   55.2373 C   0  0
   68.5052   14.5801   55.4749 N   0  0
   67.2615   16.0844   54.1154 N   0  0
   67.8086   12.2868   55.8762 C   0  0
   65.1879   15.4335   53.0153 C   0  0
   69.5429   17.0186   55.2320 S   0  0
   71.5230   21.6874   52.0421 H   0  0
   72.9350   23.5897   52.2682 H   0  0
   72.4145   23.5323   56.5303 H   0  0
   71.0048   21.5708   56.3451 H   0  0
   74.7588   24.8886   52.9887 H   0  0
   73.2609   25.8766   52.8984 H   0  0
   75.2666   27.3146   53.2335 H   0  0
   75.6492   26.4298   54.7301 H   0  0
   74.1821   27.3976   54.6428 H   0  0
   69.1254   17.6614   52.5318 H   0  0
   67.6900   18.5555   54.8307 H   0  0
   68.0081   19.0452   52.5765 H   0  0
   65.7489   13.0694   54.2591 H   0  0
   67.8903   11.5099   55.1096 H   0  0
   66.9772   12.0454   56.5458 H   0  0
   68.7319   12.2827   56.4645 H   0  0
   64.2522   15.3121   53.5699 H   0  0
   65.1762   14.7761   52.1403 H   0  0
   65.2436   16.4686   52.6630 H   0  0
  1  2  2  0
  1  6  1  0
  1 14  1  0
  2  3  1  0
  2 26  1  0
  3  4  2  0
  3 27  1  0
  4  5  1  0
  4  7  1  0
  5  6  2  0
  5 28  1  0
  6 29  1  0
  7  8  1  0
  8  9  1  0
  8 30  1  0
  8 31  1  0
  9 32  1  0
  9 33  1  0
  9 34  1  0
 10 13  1  0
 10 14  1  0
 10 15  2  0
 11 12  1  0
 11 14  1  0
 11 16  2  0
 12 13  1  0
 12 35  1  0
 12 37  1  0
 13 25  1  0
 13 36  1  0
 17 21  1  0
 17 22  2  0
 17 25  1  0
 18 19  2  0
 18 22  1  0
 18 24  1  0
 19 20  1  0
 19 38  1  0
 20 21  2  0
 20 23  1  0
 23 39  1  0
 23 40  1  0
 23 41  1  0
 24 42  1  0
 24 43  1  0
 24 44  1  0
M  END
> <Name>
ligand_54

> <IC50 (nM)>
300000

$$$$
ligand_79
  SciTegic07132122123D

 28 30  0  0  0  0            999 V2000
   66.7924   17.3072   52.5437 C   0  0
   65.9355   16.7327   53.4640 C   0  0
   64.8207   16.0922   52.8406 C   0  0
   64.8844   16.2093   51.4762 C   0  0
   63.7602   15.5809   50.3354 Cl  0  0
   66.2375   17.0737   50.9398 S   0  0
   68.0419   18.0227   52.9293 C   0  0
   69.5894   18.7363   54.3607 C   0  0
   68.8695   18.6800   52.0428 C   0  0
   68.4681   18.0539   54.2500 N   0  0
   70.2190   19.3329   52.8720 S   0  0
   70.3560   18.8941   55.6263 C   0  0
   69.7892   20.3116   56.5348 S   0  0
   70.6444   20.4895   57.6957 O   0  0
   68.3463   20.2879   56.6796 O   0  0
   70.1147   21.7245   55.4994 C   0  0
   69.2695   22.6048   54.8503 C   0  0
   69.9801   23.6018   54.1217 C   0  0
   71.3438   23.4531   54.2435 C   0  0
   71.7590   22.1172   55.2282 S   0  0
   66.1013   16.7681   54.5353 H   0  0
   64.0294   15.5767   53.3701 H   0  0
   68.7670   18.7994   50.9738 H   0  0
   71.4334   18.9892   55.4647 H   0  0
   70.1927   18.0253   56.2729 H   0  0
   68.1889   22.5299   54.9058 H   0  0
   69.5144   24.3909   53.5432 H   0  0
   72.1192   24.0690   53.8070 H   0  0
  1  2  2  0
  1  6  1  0
  1  7  1  0
  2  3  1  0
  2 21  1  0
  3  4  2  0
  3 22  1  0
  4  5  1  0
  4  6  1  0
  7  9  2  0
  7 10  1  0
  8 10  2  0
  8 11  1  0
  8 12  1  0
  9 11  1  0
  9 23  1  0
 12 13  1  0
 12 24  1  0
 12 25  1  0
 13 14  2  0
 13 15  2  0
 13 16  1  0
 16 17  2  0
 16 20  1  0
 17 18  1  0
 17 26  1  0
 18 19  2  0
 18 27  1  0
 19 20  1  0
 19 28  1  0
M  END
> <Name>
ligand_79

> <IC50 (nM)>
18000

$$$$
ligand_62
  SciTegic07132122123D

 39 40  0  0  0  0            999 V2000
   75.4197   24.0671   50.9842 C   0  0
   74.7231   22.6688   50.2202 Cl  0  0
   76.2791   25.1379   49.9193 Cl  0  0
   75.2787   24.3212   52.2928 C   0  0
   74.5459   23.3677   53.1455 C   0  0
   74.9852   22.2821   53.4946 O   0  0
   75.9035   25.7137   53.0993 Cl  0  0
   73.2901   23.8937   53.4096 O   0  0
   72.4331   23.0530   54.1340 C   0  0
   71.0458   21.0763   54.3039 C   0  0
   71.9461   21.8655   53.5783 C   0  0
   72.0096   23.4875   55.3885 C   0  0
   71.1087   22.7032   56.1120 C   0  0
   70.6335   21.4978   55.5707 C   0  0
   69.4847   20.5537   56.5482 S   0  0
   70.2754   19.8809   57.5643 O   0  0
   68.4316   21.4750   56.9441 O   0  0
   68.6965   19.2859   55.5676 C   0  0
   69.1606   17.9648   55.6367 C   0  0
   67.5451   19.5988   54.8321 C   0  0
   66.8667   18.5879   54.1454 C   0  0
   67.3500   17.2794   54.1994 C   0  0
   68.4814   16.9549   54.9494 C   0  0
   66.6362   16.2631   53.5563 O   0  0
   67.0900   16.0188   52.2690 C   0  0
   68.0028   16.5960   51.6903 O   0  0
   66.2492   14.9831   51.6438 C   0  0
   66.2940   13.7064   52.0510 C   0  0
   65.2752   15.5465   50.3297 Cl  0  0
   67.3318   13.1621   53.3325 Cl  0  0
   65.3328   12.4616   51.3067 Cl  0  0
   70.6916   20.1479   53.8649 H   0  0
   72.2661   21.5442   52.5903 H   0  0
   72.3765   24.4241   55.8036 H   0  0
   70.7797   23.0324   57.0968 H   0  0
   70.0332   17.7131   56.2369 H   0  0
   67.1616   20.6172   54.8090 H   0  0
   65.9581   18.8147   53.5929 H   0  0
   68.8191   15.9235   55.0175 H   0  0
  1  2  1  0
  1  3  1  0
  1  4  2  0
  4  5  1  0
  4  7  1  0
  5  6  2  0
  5  8  1  0
  8  9  1  0
  9 11  2  0
  9 12  1  0
 10 11  1  0
 10 14  2  0
 10 32  1  0
 11 33  1  0
 12 13  2  0
 12 34  1  0
 13 14  1  0
 13 35  1  0
 14 15  1  0
 15 16  2  0
 15 17  2  0
 15 18  1  0
 18 19  2  0
 18 20  1  0
 19 23  1  0
 19 36  1  0
 20 21  2  0
 20 37  1  0
 21 22  1  0
 21 38  1  0
 22 23  2  0
 22 24  1  0
 23 39  1  0
 24 25  1  0
 25 26  2  0
 25 27  1  0
 27 28  2  0
 27 29  1  0
 28 30  1  0
 28 31  1  0
M  END
> <Name>
ligand_62

> <IC50 (nM)>
900

$$$$
ligand_107
  SciTegic07132122123D

 46 50  0  0  0  0            999 V2000
   67.5948   18.7984   53.3519 C   0  0
   68.4462   19.4661   54.2347 C   0  0
   69.0947   18.7458   55.2330 C   0  0
   67.3643   17.4276   53.4843 C   0  0
   67.9957   16.7041   54.4998 C   0  0
   68.8775   17.3687   55.3510 C   0  0
   69.6046   16.7310   56.3236 O   0  0
   69.5911   15.3499   56.3479 C   0  0
   68.7410   14.5796   55.6422 C   0  0
   67.7876   15.2559   54.7136 C   0  0
   70.6478   14.7881   57.2035 C   0  0
   70.6856   15.0647   58.5886 C   0  0
   71.7032   14.5411   59.3968 C   0  0
   71.6492   13.9953   56.6223 C   0  0
   68.6917   13.1975   55.7096 O   0  0
   66.8872   14.6270   54.1724 O   0  0
   66.5446   16.8107   52.5845 O   0  0
   68.6134   20.7925   53.9648 O   0  0
   69.0721   21.6608   55.0026 C   0  0
   70.4590   22.1849   54.7005 C   0  0
   70.7546   23.5451   54.8991 C   0  0
   72.0390   24.0380   54.6519 C   0  0
   73.0343   23.1670   54.2121 C   0  0
   72.7644   21.8162   54.0179 C   0  0
   71.4814   21.3279   54.2623 C   0  0
   74.6148   23.7673   53.9023 Cl  0  0
   72.6330   13.4942   57.4427 C   0  0
   72.6619   13.7582   58.7909 C   0  0
   73.7179   13.1660   59.4091 O   0  0
   74.3455   12.4986   58.2926 C   0  0
   73.6591   12.7014   57.0410 O   0  0
   67.1190   19.3661   52.5562 H   0  0
   69.8068   19.2123   55.9062 H   0  0
   69.9197   15.6924   59.0406 H   0  0
   71.7445   14.7436   60.4625 H   0  0
   71.6666   13.7778   55.5583 H   0  0
   69.2300   12.8870   56.4553 H   0  0
   66.1922   17.4553   51.9494 H   0  0
   69.0358   21.2213   56.0054 H   0  0
   68.3671   22.5008   55.0163 H   0  0
   69.9818   24.2306   55.2412 H   0  0
   72.2546   25.0931   54.8009 H   0  0
   73.5426   21.1416   53.6714 H   0  0
   71.2884   20.2721   54.0913 H   0  0
   75.3717   12.8715   58.1946 H   0  0
   74.3813   11.4235   58.5032 H   0  0
  1  2  2  0
  1  4  1  0
  1 32  1  0
  2  3  1  0
  2 18  1  0
  3  6  2  0
  3 33  1  0
  4  5  2  0
  4 17  1  0
  5  6  1  0
  5 10  1  0
  6  7  1  0
  7  8  1  0
  8  9  2  0
  8 11  1  0
  9 10  1  0
  9 15  1  0
 10 16  2  0
 11 12  1  0
 11 14  2  0
 12 13  2  0
 12 34  1  0
 13 28  1  0
 13 35  1  0
 14 27  1  0
 14 36  1  0
 15 37  1  0
 17 38  1  0
 18 19  1  0
 19 20  1  0
 19 39  1  0
 19 40  1  0
 20 21  2  0
 20 25  1  0
 21 22  1  0
 21 41  1  0
 22 23  2  0
 22 42  1  0
 23 24  1  0
 23 26  1  0
 24 25  2  0
 24 43  1  0
 25 44  1  0
 27 28  2  0
 27 31  1  0
 28 29  1  0
 29 30  1  0
 30 31  1  0
 30 45  1  0
 30 46  1  0
M  END
> <Name>
ligand_107

> <IC50 (nM)>
9300

$$$$
ligand_116
  SciTegic07132122123D

 52 56  0  0  0  0            999 V2000
   66.3602   16.8535   51.5023 C   0  0
   65.8855   15.5815   51.1920 C   0  0
   66.3124   14.5079   51.9544 C   0  0
   67.2003   14.7036   53.0165 C   0  0
   67.6954   15.9888   53.3623 C   0  0
   67.2637   17.0958   52.5778 C   0  0
   68.5744   16.0498   54.5514 C   0  0
   69.3947   14.9631   54.7679 O   0  0
   70.1599   15.1666   55.9230 C   0  0
   69.7661   16.3975   56.4259 C   0  0
   68.7568   16.9341   55.5873 C   0  0
   71.1255   14.1889   56.3334 C   0  0
   71.9181   14.1460   57.4215 C   0  0
   72.1119   15.0382   58.5996 C   0  0
   73.1775   14.4373   59.3049 N   0  0
   73.6216   13.2224   58.7568 N   0  0
   72.8982   13.0518   57.6788 C   0  0
   71.4407   16.0162   58.8596 O   0  0
   73.8100   14.9299   60.4801 C   0  0
   74.7569   14.1316   61.1406 C   0  0
   75.3967   14.5770   62.2977 C   0  0
   75.1097   15.8428   62.8056 C   0  0
   74.1851   16.6848   62.1664 C   0  0
   73.5374   16.2059   61.0054 C   0  0
   73.9055   18.0815   62.7117 C   0  0
   74.4626   18.4006   63.8218 O   0  5
   73.1399   18.8349   62.0286 O   0  0
   73.0115   11.8784   56.8096 C   0  0
   67.7037   18.5558   52.7648 C   0  0
   68.7339   18.7963   53.4651 O   0  0
   67.0032   19.4308   52.1331 O   0  5
   65.7219   12.9289   51.5907 Cl  0  0
   72.0896   10.8354   56.9506 C   0  0
   72.1835    9.7213   56.1199 C   0  0
   73.1932    9.6593   55.1572 C   0  0
   74.1163   10.6981   55.0212 C   0  0
   74.0265   11.8158   55.8508 C   0  0
   66.0257   17.6956   50.8928 H   0  0
   65.1914   15.4544   50.3657 H   0  0
   67.5097   13.8518   53.6204 H   0  0
   70.1528   16.9039   57.2957 H   0  0
   68.2579   17.8867   55.7084 H   0  0
   71.2050   13.3802   55.6130 H   0  0
   74.9939   13.1487   60.7481 H   0  0
   76.1205   13.9442   62.8003 H   0  0
   75.6121   16.1964   63.7036 H   0  0
   72.8303   16.8780   60.5164 H   0  0
   71.2990   10.9092   57.6940 H   0  0
   71.4786    8.8986   56.2192 H   0  0
   73.2646    8.7913   54.5080 H   0  0
   74.8993   10.6298   54.2682 H   0  0
   74.7194   12.6464   55.7376 H   0  0
  1  2  2  0
  1  6  1  0
  1 38  1  0
  2  3  1  0
  2 39  1  0
  3  4  2  0
  3 32  1  0
  4  5  1  0
  4 40  1  0
  5  6  2  0
  5  7  1  0
  6 29  1  0
  7  8  1  0
  7 11  2  0
  8  9  1  0
  9 10  2  0
  9 12  1  0
 10 11  1  0
 10 41  1  0
 11 42  1  0
 12 13  2  0
 12 43  1  0
 13 14  1  0
 13 17  1  0
 14 15  1  0
 14 18  2  0
 15 16  1  0
 15 19  1  0
 16 17  2  0
 17 28  1  0
 19 20  2  0
 19 24  1  0
 20 21  1  0
 20 44  1  0
 21 22  2  0
 21 45  1  0
 22 23  1  0
 22 46  1  0
 23 24  2  0
 23 25  1  0
 24 47  1  0
 25 26  1  0
 25 27  2  0
 28 33  2  0
 28 37  1  0
 29 30  2  0
 29 31  1  0
 33 34  1  0
 33 48  1  0
 34 35  2  0
 34 49  1  0
 35 36  1  0
 35 50  1  0
 36 37  2  0
 36 51  1  0
 37 52  1  0
M  CHG  2  26  -1  31  -1
M  END
> <Name>
ligand_116

> <IC50 (nM)>
44700

$$$$
ligand_92
  SciTegic07132122123D

 43 45  0  0  0  0            999 V2000
   64.9642   22.2051   46.7533 C   0  0
   64.4798   22.7671   47.9403 C   0  0
   65.1864   22.6236   49.1366 C   0  0
   66.3935   21.9141   49.1909 C   0  0
   66.1722   21.4962   46.7868 C   0  0
   66.8710   20.8770   45.7869 N   0  0
   66.8523   21.3576   47.9909 C   0  0
   67.9422   20.6042   47.6351 N   0  0
   67.9713   20.3566   46.3122 N   0  0
   69.0465   20.1888   48.4699 C   0  0
   68.5928   19.1923   49.5065 C   0  0
   68.8094   19.5203   50.9370 C   0  0
   68.0201   18.1430   49.2224 O   0  0
   67.8317   19.1305   51.8563 C   0  0
   69.9440   20.2088   51.3740 C   0  0
   70.0817   20.5261   52.7280 C   0  0
   69.1002   20.1588   53.6570 C   0  0
   67.9778   19.4561   53.2047 C   0  0
   69.2221   20.4482   55.0152 N   0  0
   69.2604   21.8638   55.4049 C   0  0
   70.0872   19.5300   55.7705 C   0  0
   67.9702   22.5863   55.0405 C   0  0
   69.4363   18.1694   55.9747 C   0  0
   64.4234   22.3143   45.8204 H   0  0
   63.5431   23.3218   47.9223 H   0  0
   64.7891   23.0694   50.0469 H   0  0
   66.9301   21.8077   50.1268 H   0  0
   69.8197   19.7265   47.8478 H   0  0
   69.4579   21.1015   48.9086 H   0  0
   66.9512   18.5805   51.5295 H   0  0
   70.7420   20.4889   50.6927 H   0  0
   70.9732   21.0505   53.0630 H   0  0
   67.2108   19.1571   53.9156 H   0  0
   69.3815   21.9399   56.4922 H   0  0
   70.1225   22.3710   54.9559 H   0  0
   71.0630   19.4181   55.2818 H   0  0
   70.2874   19.9471   56.7651 H   0  0
   67.9896   23.6100   55.4277 H   0  0
   67.1004   22.0759   55.4673 H   0  0
   67.8308   22.6435   53.9562 H   0  0
   70.0502   17.5552   56.6414 H   0  0
   69.3306   17.6261   55.0308 H   0  0
   68.4424   18.2717   56.4227 H   0  0
  1  2  1  0
  1  5  2  0
  1 24  1  0
  2  3  2  0
  2 25  1  0
  3  4  1  0
  3 26  1  0
  4  7  2  0
  4 27  1  0
  5  6  1  0
  5  7  1  0
  6  9  2  0
  7  8  1  0
  8  9  1  0
  8 10  1  0
 10 11  1  0
 10 28  1  0
 10 29  1  0
 11 12  1  0
 11 13  2  0
 12 14  2  0
 12 15  1  0
 14 18  1  0
 14 30  1  0
 15 16  2  0
 15 31  1  0
 16 17  1  0
 16 32  1  0
 17 18  2  0
 17 19  1  0
 18 33  1  0
 19 20  1  0
 19 21  1  0
 20 22  1  0
 20 34  1  0
 20 35  1  0
 21 23  1  0
 21 36  1  0
 21 37  1  0
 22 38  1  0
 22 39  1  0
 22 40  1  0
 23 41  1  0
 23 42  1  0
 23 43  1  0
M  END
> <Name>
ligand_92

$$$$
ligand_65
  SciTegic07132122123D

 33 34  0  0  0  0            999 V2000
   71.8439   20.5472   55.2611 C   0  0
   72.9066   21.0205   54.4942 C   0  0
   72.7275   22.1280   53.6637 C   0  0
   71.4918   22.7758   53.6070 C   0  0
   70.4234   22.3120   54.3731 C   0  0
   70.6034   21.1896   55.1841 C   0  0
   69.2459   20.5353   56.1251 S   0  0
   68.0871   21.3857   55.9229 O   0  0
   69.7510   20.3084   57.4676 O   0  0
   68.8615   18.9499   55.3704 C   0  0
   68.2407   18.8478   54.1281 C   0  0
   68.3582   16.4547   54.4431 C   0  0
   67.9939   17.5502   53.6275 C   0  0
   68.9750   16.6420   55.6797 C   0  0
   69.2411   17.8870   56.1398 N   0  0
   67.8920   20.0069   53.3617 C   0  0
   67.6360   20.9198   52.6945 N   0  0
   67.3118   17.3435   52.2954 C   0  0
   68.0827   15.1034   54.0111 N   0  3
   66.9022   14.7394   54.0429 O   0  0
   69.0474   14.4282   53.6345 O   0  5
   69.3781   15.5094   56.5801 C   0  0
   71.9910   19.6906   55.9165 H   0  0
   73.8771   20.5320   54.5449 H   0  0
   73.5566   22.4925   53.0625 H   0  0
   71.3614   23.6431   52.9635 H   0  0
   69.4639   22.8234   54.3195 H   0  0
   67.6205   16.4064   51.8216 H   0  0
   67.5722   18.1299   51.5802 H   0  0
   66.2260   17.3318   52.4318 H   0  0
   69.7624   15.8918   57.5318 H   0  0
   70.1701   14.9140   56.1164 H   0  0
   68.5192   14.8691   56.8039 H   0  0
  1  2  2  0
  1  6  1  0
  1 23  1  0
  2  3  1  0
  2 24  1  0
  3  4  2  0
  3 25  1  0
  4  5  1  0
  4 26  1  0
  5  6  2  0
  5 27  1  0
  6  7  1  0
  7  8  2  0
  7  9  2  0
  7 10  1  0
 10 11  2  0
 10 15  1  0
 11 13  1  0
 11 16  1  0
 12 13  2  0
 12 14  1  0
 12 19  1  0
 13 18  1  0
 14 15  2  0
 14 22  1  0
 16 17  3  0
 18 28  1  0
 18 29  1  0
 18 30  1  0
 19 20  2  0
 19 21  1  0
 22 31  1  0
 22 32  1  0
 22 33  1  0
M  CHG  2  19   1  21  -1
M  END
> <Name>
ligand_65

> <IC50 (nM)>
13000

$$$$
ligand_66
  SciTegic07132122123D

 36 37  0  0  0  0            999 V2000
   71.7404   20.4300   55.1914 C   0  0
   72.7819   20.9348   54.4145 C   0  0
   72.5946   22.0901   53.6440 C   0  0
   71.3650   22.7618   53.6951 C   0  0
   70.3182   22.2654   54.4722 C   0  0
   70.5085   21.0906   55.1998 C   0  0
   69.1701   20.3810   56.1273 S   0  0
   68.0080   21.2416   56.0027 O   0  0
   69.7030   20.0680   57.4414 O   0  0
   68.7732   18.8483   55.2763 C   0  0
   68.1437   18.8291   54.0342 C   0  0
   68.3000   16.4215   54.1705 C   0  0
   67.9129   17.5686   53.4406 C   0  0
   68.9206   16.5262   55.4151 C   0  0
   69.1722   17.7376   55.9638 N   0  0
   67.7717   20.0361   53.3578 C   0  0
   67.4942   20.9907   52.7612 N   0  0
   67.2263   17.4503   52.1000 C   0  0
   68.0452   15.1021   53.6390 N   0  3
   66.8688   14.7245   53.6302 O   0  5
   69.0214   14.4660   53.2259 O   0  0
   69.3467   15.3369   56.2275 C   0  0
   73.7215   22.6380   52.8196 C   0  0
   71.8985   19.5324   55.7866 H   0  0
   73.7428   20.4235   54.4114 H   0  0
   71.2138   23.6755   53.1227 H   0  0
   69.3662   22.7930   54.4882 H   0  0
   67.5525   16.5595   51.5540 H   0  0
   67.4644   18.2947   51.4459 H   0  0
   66.1420   17.4043   52.2406 H   0  0
   69.7215   15.6535   57.2068 H   0  0
   70.1520   14.7958   55.7219 H   0  0
   68.5017   14.6631   56.3996 H   0  0
   74.3658   21.8316   52.4536 H   0  0
   74.3232   23.3275   53.4198 H   0  0
   73.3408   23.1719   51.9425 H   0  0
  1  2  2  0
  1  6  1  0
  1 24  1  0
  2  3  1  0
  2 25  1  0
  3  4  2  0
  3 23  1  0
  4  5  1  0
  4 26  1  0
  5  6  2  0
  5 27  1  0
  6  7  1  0
  7  8  2  0
  7  9  2  0
  7 10  1  0
 10 11  2  0
 10 15  1  0
 11 13  1  0
 11 16  1  0
 12 13  2  0
 12 14  1  0
 12 19  1  0
 13 18  1  0
 14 15  2  0
 14 22  1  0
 16 17  3  0
 18 28  1  0
 18 29  1  0
 18 30  1  0
 19 20  1  0
 19 21  2  0
 22 31  1  0
 22 32  1  0
 22 33  1  0
 23 34  1  0
 23 35  1  0
 23 36  1  0
M  CHG  2  19   1  20  -1
M  END
> <Name>
ligand_66

> <IC50 (nM)>
13000

$$$$
ligand_63
  SciTegic07132122123D

 27 28  0  0  0  0            999 V2000
   69.2938   17.6751   55.0227 C   0  0
   68.5350   16.8069   54.2349 C   0  0
   67.2970   17.2198   53.7407 C   0  0
   66.8043   18.4922   54.0334 C   0  0
   67.5572   19.3655   54.8212 C   0  0
   68.8060   18.9570   55.3000 C   0  0
   66.3696   16.1500   52.7645 Cl  0  0
   69.7715   20.0632   56.3081 S   0  0
   70.6368   19.2336   57.1288 O   0  0
   68.8552   20.9932   56.9472 O   0  0
   70.7891   20.9651   55.2200 C   0  0
   70.3546   22.0735   54.5363 C   0  0
   72.0934   20.5862   55.0249 C   0  0
   72.4081   22.2691   53.5213 C   0  0
   72.9199   21.2231   54.1738 N   0  0
   71.1556   22.7160   53.6683 N   0  0
   69.0708   22.5761   54.6166 N   0  0
   73.2174   22.9210   52.6416 N   0  0
   70.2526   17.3410   55.4141 H   0  0
   68.9104   15.8108   54.0129 H   0  0
   65.8359   18.8076   53.6527 H   0  0
   67.1638   20.3537   55.0493 H   0  0
   72.5381   19.7398   55.5415 H   0  0
   68.6275   22.5863   55.5334 H   0  0
   68.9267   23.3963   54.0376 H   0  0
   72.8435   23.7098   52.1445 H   0  0
   74.1570   22.5845   52.5264 H   0  0
  1  2  2  0
  1  6  1  0
  1 19  1  0
  2  3  1  0
  2 20  1  0
  3  4  2  0
  3  7  1  0
  4  5  1  0
  4 21  1  0
  5  6  2  0
  5 22  1  0
  6  8  1  0
  8  9  2  0
  8 10  2  0
  8 11  1  0
 11 12  2  0
 11 13  1  0
 12 16  1  0
 12 17  1  0
 13 15  2  0
 13 23  1  0
 14 15  1  0
 14 16  2  0
 14 18  1  0
 17 24  1  0
 17 25  1  0
 18 26  1  0
 18 27  1  0
M  END
> <Name>
ligand_63

> <IC50 (nM)>
6000

$$$$
ligand_84
  SciTegic07132122123D

 29 31  0  0  0  0            999 V2000
   69.4389   15.5112   56.1101 C   0  0
   69.2683   14.2614   56.7169 C   0  0
   68.6759   13.1952   56.0329 C   0  0
   68.2345   13.3418   54.7104 C   0  0
   68.9839   15.6298   54.7934 C   0  0
   68.9522   16.6511   53.8849 N   0  0
   68.3996   14.5861   54.0862 C   0  0
   68.0883   15.0004   52.8156 N   0  0
   68.4721   16.2668   52.6915 N   0  0
   69.5763   17.8822   53.9977 O   0  0
   68.7682   18.7866   54.5994 C   0  0
   67.6680   18.5690   55.0854 O   0  0
   69.4511   20.1117   54.6466 C   0  0
   69.0917   21.0534   55.6345 C   0  0
   70.4345   20.4320   53.6912 C   0  0
   71.0889   21.6621   53.7369 C   0  0
   70.7714   22.5739   54.7374 C   0  0
   69.7886   22.2685   55.6814 C   0  0
   68.1737   20.7744   56.6441 N   0  0
   69.8878   16.3441   56.6411 H   0  0
   69.5996   14.1181   57.7442 H   0  0
   68.5552   12.2353   56.5322 H   0  0
   67.7804   12.5129   54.1768 H   0  0
   70.6979   19.7330   52.9004 H   0  0
   71.8481   21.9091   52.9979 H   0  0
   71.2891   23.5286   54.7868 H   0  0
   69.5668   22.9986   56.4576 H   0  0
   67.5556   19.9725   56.5066 H   0  0
   67.8267   21.5187   57.2337 H   0  0
  1  2  1  0
  1  5  2  0
  1 20  1  0
  2  3  2  0
  2 21  1  0
  3  4  1  0
  3 22  1  0
  4  7  2  0
  4 23  1  0
  5  6  1  0
  5  7  1  0
  6  9  1  0
  6 10  1  0
  7  8  1  0
  8  9  2  0
 10 11  1  0
 11 12  2  0
 11 13  1  0
 13 14  2  0
 13 15  1  0
 14 18  1  0
 14 19  1  0
 15 16  2  0
 15 24  1  0
 16 17  1  0
 16 25  1  0
 17 18  2  0
 17 26  1  0
 18 27  1  0
 19 28  1  0
 19 29  1  0
M  END
> <Name>
ligand_84

$$$$
ligand_60
  SciTegic07132122123D

 34 35  0  0  0  0            999 V2000
   64.6952   22.1409   47.3232 C   0  0
   64.3435   22.8975   46.2078 C   0  0
   65.2750   23.0840   45.1919 C   0  0
   66.5493   22.5256   45.3043 C   0  0
   66.8939   21.7664   46.4316 C   0  0
   65.9656   21.5624   47.4552 C   0  0
   63.7763   21.9501   48.2835 F   0  0
   64.8534   23.9972   43.7915 Cl  0  0
   67.3805   20.1567   48.9842 C   0  0
   66.2136   20.8057   48.6222 N   0  0
   68.4116   20.1187   48.3159 O   0  0
   67.2860   19.3805   50.2918 C   0  0
   66.6533   20.4305   51.6315 S   0  0
   67.4842   19.6543   52.9867 C   0  0
   68.0320   17.7691   54.1772 C   0  0
   68.8391   19.8826   54.8351 C   0  0
   68.7805   18.5185   55.0632 C   0  0
   68.1754   20.4583   53.8032 N   0  0
   67.3850   18.3237   53.1313 N   0  0
   67.9180   16.2841   54.3477 C   0  0
   69.6399   20.7715   55.7671 C   0  0
   70.0283   21.9504   55.2050 F   0  0
   68.9506   21.0972   56.8976 F   0  0
   70.7894   20.1738   56.2022 F   0  0
   63.3469   23.3226   46.1346 H   0  0
   67.2777   22.6722   44.5076 H   0  0
   67.8963   21.3517   46.4834 H   0  0
   65.4473   20.7739   49.2909 H   0  0
   66.6238   18.5210   50.1490 H   0  0
   68.2904   19.0157   50.5326 H   0  0
   69.3023   18.0594   55.8954 H   0  0
   68.9069   15.8194   54.2858 H   0  0
   67.2874   15.8491   53.5655 H   0  0
   67.4692   16.0481   55.3175 H   0  0
  1  2  2  0
  1  6  1  0
  1  7  1  0
  2  3  1  0
  2 25  1  0
  3  4  2  0
  3  8  1  0
  4  5  1  0
  4 26  1  0
  5  6  2  0
  5 27  1  0
  6 10  1  0
  9 10  1  0
  9 11  2  0
  9 12  1  0
 10 28  1  0
 12 13  1  0
 12 29  1  0
 12 30  1  0
 13 14  1  0
 14 18  1  0
 14 19  2  0
 15 17  2  0
 15 19  1  0
 15 20  1  0
 16 17  1  0
 16 18  2  0
 16 21  1  0
 17 31  1  0
 20 32  1  0
 20 33  1  0
 20 34  1  0
 21 22  1  0
 21 23  1  0
 21 24  1  0
M  END
> <Name>
ligand_60

> <IC50 (nM)>
500000

$$$$
ligand_40
  SciTegic07132122123D

 44 47  0  0  0  0            999 V2000
   66.4841   21.6044   47.2541 C   0  0
   65.6460   22.1338   46.2682 C   0  0
   64.5361   22.9113   46.6184 C   0  0
   64.2594   23.1610   47.9591 C   0  0
   65.0824   22.6384   48.9537 C   0  0
   66.1920   21.8626   48.6007 C   0  0
   67.6246   20.8207   46.9832 N   0  0
   68.1046   20.4358   45.7393 C   0  0
   67.6030   20.7086   44.6502 O   0  0
   69.3761   19.6037   45.8194 C   0  0
   70.8316   20.6385   45.4866 S   0  0
   70.8239   21.6540   46.9396 C   0  0
   70.9569   23.2028   49.1520 C   0  0
   70.5065   21.8998   49.2004 C   0  0
   71.3299   23.6602   47.9128 C   0  0
   71.2852   22.9036   46.8058 N   0  0
   70.4117   21.1165   48.1018 N   0  0
   70.1227   21.2742   50.4597 C   0  0
   70.2066   21.6215   51.7892 C   0  0
   69.6530   20.5229   52.5012 C   0  0
   69.5475   20.0412   50.3763 O   0  0
   69.2601   19.5685   51.6433 N   0  0
   69.5288   20.3493   53.9485 C   0  0
   68.8420   21.0838   56.1674 C   0  0
   68.9180   21.2998   54.7832 C   0  0
   70.0525   19.1813   54.5356 C   0  0
   69.9803   18.9723   55.9171 C   0  0
   69.3706   19.9219   56.7317 C   0  0
   68.2021   22.7550   54.1764 Cl  0  0
   62.8948   24.1193   48.3842 Cl  0  0
   65.8281   21.9651   45.2119 H   0  0
   63.8979   23.3150   45.8364 H   0  0
   64.8671   22.8266   50.0020 H   0  0
   66.8171   21.4584   49.3937 H   0  0
   68.1772   20.5364   47.7878 H   0  0
   69.4632   19.0856   46.7794 H   0  0
   69.3173   18.8296   45.0468 H   0  0
   71.0235   23.8397   50.0233 H   0  0
   71.6960   24.6731   47.7665 H   0  0
   70.6245   22.5270   52.2028 H   0  0
   68.3643   21.8188   56.8133 H   0  0
   70.5245   18.4232   53.9119 H   0  0
   70.3982   18.0677   56.3551 H   0  0
   69.3027   19.7564   57.8058 H   0  0
  1  2  2  0
  1  6  1  0
  1  7  1  0
  2  3  1  0
  2 31  1  0
  3  4  2  0
  3 32  1  0
  4  5  1  0
  4 30  1  0
  5  6  2  0
  5 33  1  0
  6 34  1  0
  7  8  1  0
  7 35  1  0
  8  9  2  0
  8 10  1  0
 10 11  1  0
 10 36  1  0
 10 37  1  0
 11 12  1  0
 12 16  1  0
 12 17  2  0
 13 14  2  0
 13 15  1  0
 13 38  1  0
 14 17  1  0
 14 18  1  0
 15 16  2  0
 15 39  1  0
 18 19  2  0
 18 21  1  0
 19 20  1  0
 19 40  1  0
 20 22  2  0
 20 23  1  0
 21 22  1  0
 23 25  2  0
 23 26  1  0
 24 25  1  0
 24 28  2  0
 24 41  1  0
 25 29  1  0
 26 27  2  0
 26 42  1  0
 27 28  1  0
 27 43  1  0
 28 44  1  0
M  END
> <Name>
ligand_40

> <IC50 (nM)>
15000

$$$$
ligand_38
  SciTegic07132122123D

 44 47  0  0  0  0            999 V2000
   69.3685   17.8672   55.2061 C   0  0
   69.8670   17.0663   56.2369 C   0  0
   70.2447   15.7416   55.9900 C   0  0
   70.1221   15.2115   54.7094 C   0  0
   69.6251   15.9958   53.6716 C   0  0
   69.2511   17.3209   53.9203 C   0  0
   70.5887   13.5823   54.4119 Cl  0  0
   68.9805   19.2119   55.3706 N   0  0
   68.9830   19.9536   56.5445 C   0  0
   69.2935   19.5487   57.6638 O   0  0
   68.5504   21.3977   56.3334 C   0  0
   70.0024   22.4836   56.2289 S   0  0
   70.6977   21.9159   54.6999 C   0  0
   71.8068   21.1795   52.3481 C   0  0
   70.4388   21.2306   52.5219 C   0  0
   72.5638   21.5240   53.4410 C   0  0
   72.0336   21.9050   54.6127 N   0  0
   69.8654   21.5734   53.6986 N   0  0
   69.5218   20.9371   51.4250 C   0  0
   69.6586   20.6442   50.0859 C   0  0
   68.3318   20.5201   49.5844 C   0  0
   68.1916   20.9577   51.7202 O   0  0
   67.4513   20.7007   50.5818 N   0  0
   67.9055   20.2497   48.2067 C   0  0
   66.2846   20.5071   46.3998 C   0  0
   66.6849   20.7481   47.7200 C   0  0
   68.7118   19.4961   47.3399 C   0  0
   68.3062   19.2463   46.0240 C   0  0
   67.0942   19.7513   45.5553 C   0  0
   69.9831   17.4439   57.2472 H   0  0
   70.6332   15.1359   56.8036 H   0  0
   69.5222   15.5841   52.6714 H   0  0
   68.8583   17.9141   53.0977 H   0  0
   68.6980   19.7045   54.5276 H   0  0
   67.9085   21.5049   55.4535 H   0  0
   67.9528   21.6982   57.2006 H   0  0
   72.2756   20.8973   51.4156 H   0  0
   73.6501   21.5154   53.4054 H   0  0
   70.5792   20.5667   49.5282 H   0  0
   65.3426   20.9078   46.0297 H   0  0
   66.0364   21.3358   48.3675 H   0  0
   69.6566   19.0782   47.6776 H   0  0
   68.9376   18.6521   45.3667 H   0  0
   66.7785   19.5551   44.5320 H   0  0
  1  2  2  0
  1  6  1  0
  1  8  1  0
  2  3  1  0
  2 30  1  0
  3  4  2  0
  3 31  1  0
  4  5  1  0
  4  7  1  0
  5  6  2  0
  5 32  1  0
  6 33  1  0
  8  9  1  0
  8 34  1  0
  9 10  2  0
  9 11  1  0
 11 12  1  0
 11 35  1  0
 11 36  1  0
 12 13  1  0
 13 17  1  0
 13 18  2  0
 14 15  2  0
 14 16  1  0
 14 37  1  0
 15 18  1  0
 15 19  1  0
 16 17  2  0
 16 38  1  0
 19 20  2  0
 19 22  1  0
 20 21  1  0
 20 39  1  0
 21 23  2  0
 21 24  1  0
 22 23  1  0
 24 26  2  0
 24 27  1  0
 25 26  1  0
 25 29  2  0
 25 40  1  0
 26 41  1  0
 27 28  2  0
 27 42  1  0
 28 29  1  0
 28 43  1  0
 29 44  1  0
M  END
> <Name>
ligand_38

> <IC50 (nM)>
15000

$$$$
ligand_43
  SciTegic07132122123D

 44 46  0  0  0  0            999 V2000
   71.2099   16.3277   55.9318 C   0  0
   71.6685   15.0043   55.9070 C   0  0
   70.8698   13.9722   55.3980 C   0  0
   69.5971   14.2983   54.9145 C   0  0
   69.1420   15.6210   54.9387 C   0  0
   69.9443   16.6489   55.4451 C   0  0
   71.3926   12.5473   55.3857 C   0  0
   70.5402   11.6281   56.2639 C   0  0
   71.4955   11.9973   53.9610 C   0  0
   69.4084   17.9526   55.4324 N   0  0
   70.0055   19.1204   55.8774 C   0  0
   71.1438   19.2260   56.3277 O   0  0
   69.0936   20.3350   55.7787 C   0  0
   69.4900   21.3274   54.3111 S   0  0
   68.8802   20.2734   53.0228 C   0  0
   68.8641   19.7391   50.8023 C   0  0
   67.4905   18.5980   52.3011 C   0  0
   67.9233   18.7598   51.0016 C   0  0
   67.9635   19.3403   53.3261 N   0  0
   69.3506   20.5074   51.7894 N   0  0
   66.4960   17.5752   52.6626 C   0  0
   64.7009   16.2949   53.8003 C   0  0
   65.1590   15.6485   52.6765 C   0  0
   66.1893   16.3852   52.0214 C   0  0
   65.5086   17.7763   54.0604 S   0  0
   71.8747   17.0835   56.3377 H   0  0
   72.6636   14.7932   56.2935 H   0  0
   68.9430   13.5264   54.5163 H   0  0
   68.1453   15.8289   54.5622 H   0  0
   72.4074   12.5441   55.8057 H   0  0
   70.4779   12.0123   57.2881 H   0  0
   70.9773   10.6246   56.3085 H   0  0
   69.5182   11.5285   55.8821 H   0  0
   72.1155   12.6479   53.3340 H   0  0
   70.5136   11.9103   53.4832 H   0  0
   71.9522   11.0016   53.9652 H   0  0
   68.4928   18.0556   55.0009 H   0  0
   68.0363   20.0533   55.8013 H   0  0
   69.2702   20.9518   56.6666 H   0  0
   69.2642   19.9454   49.8136 H   0  0
   67.5490   18.1706   50.1763 H   0  0
   63.9279   15.9697   54.4837 H   0  0
   64.7746   14.6931   52.3398 H   0  0
   66.6877   16.0407   51.1232 H   0  0
  1  2  2  0
  1  6  1  0
  1 26  1  0
  2  3  1  0
  2 27  1  0
  3  4  2  0
  3  7  1  0
  4  5  1  0
  4 28  1  0
  5  6  2  0
  5 29  1  0
  6 10  1  0
  7  8  1  0
  7  9  1  0
  7 30  1  0
  8 31  1  0
  8 32  1  0
  8 33  1  0
  9 34  1  0
  9 35  1  0
  9 36  1  0
 10 11  1  0
 10 37  1  0
 11 12  2  0
 11 13  1  0
 13 14  1  0
 13 38  1  0
 13 39  1  0
 14 15  1  0
 15 19  1  0
 15 20  2  0
 16 18  2  0
 16 20  1  0
 16 40  1  0
 17 18  1  0
 17 19  2  0
 17 21  1  0
 18 41  1  0
 21 24  2  0
 21 25  1  0
 22 23  2  0
 22 25  1  0
 22 42  1  0
 23 24  1  0
 23 43  1  0
 24 44  1  0
M  END
> <Name>
ligand_43

> <IC50 (nM)>
40000

$$$$
ligand_34
  SciTegic07132122123D

 48 51  0  0  0  0            999 V2000
   66.2119   17.0355   51.8134 C   0  0
   64.9876   16.3554   51.8528 C   0  0
   64.9206   15.0777   52.4059 C   0  0
   66.0625   14.4663   52.9093 C   0  0
   67.2814   15.1434   52.8661 C   0  0
   67.3682   16.4368   52.3296 C   0  0
   63.4193   14.2448   52.4741 Cl  0  0
   68.6412   17.0458   52.3604 N   0  0
   68.9955   18.2876   51.8637 C   0  0
   68.2293   19.0738   51.3124 O   0  0
   70.4823   18.5965   52.0029 C   0  0
   70.7629   20.2610   52.6769 S   0  0
   70.1197   20.0325   54.3109 C   0  0
   69.1930   20.9776   56.1903 C   0  0
   69.7068   18.7228   56.1282 C   0  0
   69.2033   19.7782   56.8520 C   0  0
   70.1755   18.8274   54.8646 N   0  0
   69.6540   21.1217   54.9350 N   0  0
   69.8492   17.3833   56.6794 C   0  0
   70.2844   14.9774   56.6991 C   0  0
   70.5419   15.5440   57.9288 C   0  0
   70.2677   16.9503   57.9235 C   0  0
   69.5009   16.0586   55.6576 S   0  0
   70.7109   13.6404   56.2422 C   0  0
   71.9719   11.8738   55.8725 C   0  0
   71.8220   12.9353   56.7354 C   0  0
   70.1635   13.0297   55.1827 N   0  0
   70.9391   11.9507   54.9859 N   0  0
   70.6279   11.0460   53.9010 C   0  0
   72.9675   10.8121   55.8263 C   0  0
   73.7853   10.8103   56.9158 F   0  0
   72.3810    9.5848   55.8117 F   0  0
   73.7766   10.8561   54.7385 F   0  0
   66.2209   18.0334   51.3826 H   0  0
   64.0949   16.8351   51.4534 H   0  0
   66.0149   13.4701   53.3402 H   0  0
   68.1603   14.6401   53.2638 H   0  0
   69.3653   16.5174   52.8358 H   0  0
   71.0052   17.8468   52.6042 H   0  0
   70.9151   18.5566   50.9976 H   0  0
   68.8119   21.8849   56.6530 H   0  0
   68.8407   19.6649   57.8625 H   0  0
   70.9861   15.0172   58.7647 H   0  0
   70.4902   17.6123   58.7517 H   0  0
   72.4763   13.1948   57.5568 H   0  0
   69.8889   11.5101   53.2423 H   0  0
   70.2221   10.1272   54.3309 H   0  0
   71.5415   10.8419   53.3380 H   0  0
  1  2  2  0
  1  6  1  0
  1 34  1  0
  2  3  1  0
  2 35  1  0
  3  4  2  0
  3  7  1  0
  4  5  1  0
  4 36  1  0
  5  6  2  0
  5 37  1  0
  6  8  1  0
  8  9  1  0
  8 38  1  0
  9 10  2  0
  9 11  1  0
 11 12  1  0
 11 39  1  0
 11 40  1  0
 12 13  1  0
 13 17  1  0
 13 18  2  0
 14 16  2  0
 14 18  1  0
 14 41  1  0
 15 16  1  0
 15 17  2  0
 15 19  1  0
 16 42  1  0
 19 22  2  0
 19 23  1  0
 20 21  2  0
 20 23  1  0
 20 24  1  0
 21 22  1  0
 21 43  1  0
 22 44  1  0
 24 26  1  0
 24 27  2  0
 25 26  2  0
 25 28  1  0
 25 30  1  0
 26 45  1  0
 27 28  1  0
 28 29  1  0
 29 46  1  0
 29 47  1  0
 29 48  1  0
 30 31  1  0
 30 32  1  0
 30 33  1  0
M  END
> <Name>
ligand_34

> <IC50 (nM)>
10000

$$$$
ligand_108
  SciTegic07132122123D

 32 34  0  0  0  0            999 V2000
   72.9599   22.5097   53.9346 C   0  0
   72.5069   23.8152   54.1172 C   0  0
   71.1398   24.0485   54.2330 C   0  0
   70.2273   23.0018   54.1725 C   0  0
   70.6415   25.3048   54.4026 O   0  0
   72.0518   21.4481   53.8699 C   0  0
   70.6890   21.7001   53.9868 C   0  0
   72.4954   20.0619   53.6670 C   0  0
   70.1547   19.4242   53.6488 C   0  0
   71.4350   19.0260   53.5199 C   0  0
   73.6955   19.8082   53.6084 O   0  0
   71.8328   17.7310   53.2407 O   0  0
   69.7429   20.7146   53.9196 O   0  0
   69.0192   18.5157   53.4708 C   0  0
   68.4720   17.8218   54.5617 C   0  0
   68.4587   18.3702   52.1976 C   0  0
   67.3522   17.5535   52.0350 C   0  0
   66.7929   16.8840   53.1190 C   0  0
   67.3540   17.0004   54.3862 C   0  0
   65.6696   16.1349   52.9034 O   0  0
   66.8063   17.4340   50.7922 O   0  0
   74.3117   22.3395   53.8153 O   0  0
   73.2276   24.6262   54.1621 H   0  0
   69.1632   23.2026   54.2612 H   0  0
   71.3795   25.9393   54.4064 H   0  0
   71.0468   17.1742   53.1109 H   0  0
   68.9026   17.9339   55.5552 H   0  0
   68.8613   18.9026   51.3396 H   0  0
   66.9364   16.4691   55.2372 H   0  0
   65.2591   16.0019   53.7749 H   0  0
   66.0802   16.7871   50.9000 H   0  0
   74.4988   21.3795   53.6985 H   0  0
  1  2  1  0
  1  6  2  0
  1 22  1  0
  2  3  2  0
  2 23  1  0
  3  4  1  0
  3  5  1  0
  4  7  2  0
  4 24  1  0
  5 25  1  0
  6  7  1  0
  6  8  1  0
  7 13  1  0
  8 10  1  0
  8 11  2  0
  9 10  2  0
  9 13  1  0
  9 14  1  0
 10 12  1  0
 12 26  1  0
 14 15  2  0
 14 16  1  0
 15 19  1  0
 15 27  1  0
 16 17  2  0
 16 28  1  0
 17 18  1  0
 17 21  1  0
 18 19  2  0
 18 20  1  0
 19 29  1  0
 20 30  1  0
 21 31  1  0
 22 32  1  0
M  END
> <Name>
ligand_108

> <IC50 (nM)>
8100

$$$$
ligand_114
  SciTegic07132122123D

 64 66  0  0  0  0            999 V2000
   69.8623   18.1757   51.3747 O   0  0
   72.2462   21.7187   48.7741 O   0  0
   68.8000   23.0936   47.8217 O   0  0
   69.2135   17.5297   57.6638 O   0  5
   69.3757   19.1599   56.1782 O   0  0
   72.4796   25.8807   47.6273 N   0  3
   70.9365   21.7955   46.8998 N   0  0
   68.7739   21.0165   48.8694 N   0  0
   69.2517   17.9622   56.4994 N   0  3
   72.6533   23.6098   46.5212 C   0  0
   71.7344   24.6347   47.1741 C   0  0
   71.8966   22.3896   45.9950 C   0  0
   73.5951   25.5919   48.6033 C   0  0
   72.9026   26.7905   46.5188 C   0  0
   71.1936   21.4505   48.2038 C   0  0
   70.1079   20.6411   48.8591 C   0  0
   70.5689   19.5133   49.4352 C   0  0
   69.7560   18.5181   50.0451 C   0  0
   69.0325   17.1181   51.6312 C   0  0
   69.0365   16.6026   52.9983 C   0  0
   68.8127   17.6736   49.4729 C   0  0
   68.3665   16.7770   50.4761 C   0  0
   68.2097   22.2083   48.4398 C   0  0
   66.7469   22.3814   48.7341 C   0  0
   69.1743   17.4780   54.0794 C   0  0
   68.8786   15.2347   53.2721 C   0  0
   69.1434   16.9931   55.4019 C   0  0
   66.0600   21.6547   49.7216 C   0  0
   66.0415   23.3264   47.9802 C   0  0
   63.9841   22.7864   49.1582 C   0  0
   68.8728   14.7473   54.5937 C   0  0
   64.6840   21.8432   49.9172 C   0  0
   64.6754   23.5231   48.1935 C   0  0
   69.0015   15.6256   55.6706 C   0  0
   62.5028   22.9729   49.3292 C   0  0
   70.0141   21.5926   46.5255 H   0  0
   68.1563   20.3477   49.3116 H   0  0
   73.4132   23.2742   47.2345 H   0  0
   73.1993   24.0584   45.6837 H   0  0
   70.9479   24.9687   46.4885 H   0  0
   71.2564   24.2405   48.0755 H   0  0
   72.6111   21.6075   45.7154 H   0  0
   71.3412   22.6656   45.0916 H   0  0
   73.8893   26.5416   49.0582 H   0  0
   74.4357   25.1520   48.0615 H   0  0
   73.2124   24.9132   49.3700 H   0  0
   73.2662   27.7195   46.9659 H   0  0
   72.0306   26.9966   45.8932 H   0  0
   73.6941   26.3062   45.9423 H   0  0
   71.6383   19.3090   49.4540 H   0  0
   68.5149   17.6660   48.4326 H   0  0
   67.6483   15.9760   50.3657 H   0  0
   69.2907   18.5433   53.8842 H   0  0
   68.7728   14.5148   52.4614 H   0  0
   66.5613   20.9453   50.3728 H   0  0
   66.5384   23.9149   47.2094 H   0  0
   68.7656   13.6798   54.7722 H   0  0
   64.1557   21.2534   50.6694 H   0  0
   64.1470   24.2578   47.5919 H   0  0
   68.9883   15.2408   56.6888 H   0  0
   62.2220   24.0196   49.1716 H   0  0
   62.1887   22.7007   50.3423 H   0  0
   61.9624   22.3468   48.6126 H   0  0
   71.7750   26.3741   48.1945 H   0  0
  1 18  1  0
  1 19  1  0
  2 15  2  0
  3 23  2  0
  4  9  1  0
  5  9  2  0
  6 11  1  0
  6 13  1  0
  6 14  1  0
  6 64  1  0
  7 12  1  0
  7 15  1  0
  7 36  1  0
  8 16  1  0
  8 23  1  0
  8 37  1  0
  9 27  1  0
 10 11  1  0
 10 12  1  0
 10 38  1  0
 10 39  1  0
 11 40  1  0
 11 41  1  0
 12 42  1  0
 12 43  1  0
 13 44  1  0
 13 45  1  0
 13 46  1  0
 14 47  1  0
 14 48  1  0
 14 49  1  0
 15 16  1  0
 16 17  2  0
 17 18  1  0
 17 50  1  0
 18 21  2  0
 19 20  1  0
 19 22  2  0
 20 25  2  0
 20 26  1  0
 21 22  1  0
 21 51  1  0
 22 52  1  0
 23 24  1  0
 24 28  2  0
 24 29  1  0
 25 27  1  0
 25 53  1  0
 26 31  2  0
 26 54  1  0
 27 34  2  0
 28 32  1  0
 28 55  1  0
 29 33  2  0
 29 56  1  0
 30 32  2  0
 30 33  1  0
 30 35  1  0
 31 34  1  0
 31 57  1  0
 32 58  1  0
 33 59  1  0
 34 60  1  0
 35 61  1  0
 35 62  1  0
 35 63  1  0
M  CHG  3   4  -1   6   1   9   1
M  END
> <Name>
ligand_114

$$$$
ligand_94
  SciTegic07132122123D

 37 39  0  0  0  0            999 V2000
   71.3361   23.9980   55.1234 C   0  0
   72.3927   23.8698   54.2110 C   0  0
   72.6600   22.6419   53.5956 C   0  0
   71.8847   21.5051   53.8565 C   0  0
   70.5535   22.8639   55.4012 C   0  0
   69.4764   22.6946   56.2329 N   0  0
   70.8359   21.6575   54.7666 C   0  0
   69.8806   20.8083   55.2652 N   0  0
   69.0620   21.4386   56.1319 N   0  0
   69.5565   19.4606   54.8355 C   0  0
   70.4615   18.4118   55.4357 C   0  0
   69.9981   16.9878   55.4375 C   0  0
   68.8955   16.5459   54.7067 C   0  0
   70.7121   16.0533   56.1892 C   0  0
   70.3210   14.7047   56.2150 C   0  0
   69.2114   14.2277   55.4967 C   0  0
   68.5166   15.1910   54.7433 C   0  0
   68.8276   12.8909   55.5264 N   0  0
   71.5782   18.6670   55.8830 O   0  0
   69.5610   11.9182   56.3263 C   0  0
   67.6563   12.4234   54.7966 C   0  0
   71.1252   24.9457   55.6083 H   0  0
   73.0149   24.7339   53.9868 H   0  0
   73.4935   22.5530   52.9025 H   0  0
   72.1099   20.5529   53.3885 H   0  0
   69.6390   19.4333   53.7442 H   0  0
   68.5164   19.2772   55.1248 H   0  0
   68.3070   17.2157   54.0874 H   0  0
   71.5823   16.3597   56.7679 H   0  0
   70.9198   14.0313   56.8231 H   0  0
   67.6487   14.9036   54.1543 H   0  0
   69.5269   12.1820   57.3891 H   0  0
   70.6050   11.8518   56.0007 H   0  0
   69.1388   10.9114   56.2353 H   0  0
   67.7729   12.5944   53.7208 H   0  0
   66.7502   12.9285   55.1491 H   0  0
   67.4926   11.3484   54.9292 H   0  0
  1  2  1  0
  1  5  2  0
  1 22  1  0
  2  3  2  0
  2 23  1  0
  3  4  1  0
  3 24  1  0
  4  7  2  0
  4 25  1  0
  5  6  1  0
  5  7  1  0
  6  9  2  0
  7  8  1  0
  8  9  1  0
  8 10  1  0
 10 11  1  0
 10 26  1  0
 10 27  1  0
 11 12  1  0
 11 19  2  0
 12 13  2  0
 12 14  1  0
 13 17  1  0
 13 28  1  0
 14 15  2  0
 14 29  1  0
 15 16  1  0
 15 30  1  0
 16 17  2  0
 16 18  1  0
 17 31  1  0
 18 20  1  0
 18 21  1  0
 20 32  1  0
 20 33  1  0
 20 34  1  0
 21 35  1  0
 21 36  1  0
 21 37  1  0
M  END
> <Name>
ligand_94

$$$$
ligand_87
  SciTegic07132122123D

 41 43  0  0  0  0            999 V2000
   72.4809   21.5195   53.9606 C   0  0
   73.3648   22.5695   53.6788 C   0  0
   73.0993   23.8846   54.0821 C   0  0
   71.9272   24.1943   54.7864 C   0  0
   71.3240   21.8538   54.6684 C   0  0
   70.2511   21.1393   55.1344 N   0  0
   71.0291   23.1523   55.0771 C   0  0
   69.8159   23.1625   55.7209 N   0  0
   69.3286   21.9264   55.7120 N   0  0
   69.9151   19.8231   54.8316 O   0  0
   70.3972   18.9675   55.7634 C   0  0
   71.2040   19.2343   56.6410 O   0  0
   69.8207   17.6004   55.5845 C   0  0
   68.8524   17.2933   54.6288 C   0  0
   70.2550   16.5795   56.4318 C   0  0
   69.7267   15.2799   56.3231 C   0  0
   68.7465   14.9353   55.3759 C   0  0
   68.3327   15.9860   54.5347 C   0  0
   68.2180   13.6482   55.2844 N   0  0
   68.8577   12.4947   55.9334 C   0  0
   66.9804   13.3790   54.5398 C   0  0
   67.2725   12.9587   53.1075 C   0  0
   70.1480   12.0935   55.2309 C   0  0
   72.6948   20.5004   53.6561 H   0  0
   74.2823   22.3499   53.1360 H   0  0
   73.8090   24.6761   53.8475 H   0  0
   71.7126   25.2121   55.0971 H   0  0
   68.4738   18.0497   53.9459 H   0  0
   71.0032   16.7804   57.1970 H   0  0
   70.1008   14.5422   57.0279 H   0  0
   67.5885   15.8116   53.7618 H   0  0
   69.0336   12.6861   56.9977 H   0  0
   68.1843   11.6287   55.9097 H   0  0
   66.4195   12.5748   55.0325 H   0  0
   66.3011   14.2391   54.5592 H   0  0
   66.3363   12.8099   52.5603 H   0  0
   67.8283   12.0163   53.0799 H   0  0
   67.8630   13.7100   52.5747 H   0  0
   70.5736   11.2044   55.7070 H   0  0
   70.9009   12.8860   55.2708 H   0  0
   69.9692   11.8592   54.1771 H   0  0
  1  2  1  0
  1  5  2  0
  1 24  1  0
  2  3  2  0
  2 25  1  0
  3  4  1  0
  3 26  1  0
  4  7  2  0
  4 27  1  0
  5  6  1  0
  5  7  1  0
  6  9  1  0
  6 10  1  0
  7  8  1  0
  8  9  2  0
 10 11  1  0
 11 12  2  0
 11 13  1  0
 13 14  2  0
 13 15  1  0
 14 18  1  0
 14 28  1  0
 15 16  2  0
 15 29  1  0
 16 17  1  0
 16 30  1  0
 17 18  2  0
 17 19  1  0
 18 31  1  0
 19 20  1  0
 19 21  1  0
 20 23  1  0
 20 32  1  0
 20 33  1  0
 21 22  1  0
 21 34  1  0
 21 35  1  0
 22 36  1  0
 22 37  1  0
 22 38  1  0
 23 39  1  0
 23 40  1  0
 23 41  1  0
M  END
> <Name>
ligand_87

$$$$
ligand_48
  SciTegic07132122123D

 43 45  0  0  0  0            999 V2000
   70.9244   15.1862   56.2946 C   0  0
   68.7639   15.3396   57.3913 C   0  0
   69.4001   15.4981   58.6216 C   0  0
   70.7947   15.5007   58.6833 C   0  0
   71.5598   15.3401   57.5269 C   0  0
   71.5792   15.7070   60.1994 Cl  0  0
   69.5297   15.2082   56.2324 C   0  0
   68.8877   15.0097   55.0373 O   0  0
   68.7711   16.0750   54.1706 C   0  0
   68.3985   18.0802   52.2107 C   0  0
   68.8152   18.4066   53.5102 C   0  0
   68.9957   17.4153   54.4855 C   0  0
   68.3510   15.7448   52.8803 C   0  0
   68.1658   16.7384   51.9060 C   0  0
   68.2685   19.1458   51.2891 N   0  0
   67.8310   19.0861   49.9652 C   0  0
   67.3816   18.0858   49.4171 O   0  0
   68.0308   20.4303   49.2548 C   0  0
   67.4758   20.4529   47.5275 S   0  0
   65.9784   21.3206   47.6572 C   0  0
   63.6834   22.7445   47.6186 C   0  0
   64.1554   22.1520   48.7257 C   0  0
   65.5861   21.8691   46.4748 N   0  0
   65.3309   21.4362   48.7673 N   0  0
   64.4556   22.6217   46.3714 C   0  0
   64.0949   23.1675   45.3357 O   0  0
   63.4080   22.2313   50.0264 C   0  0
   71.5057   15.0560   55.3859 H   0  0
   67.6792   15.3308   57.3264 H   0  0
   68.8078   15.6121   59.5256 H   0  0
   72.6451   15.3280   57.5829 H   0  0
   68.9973   19.4429   53.7843 H   0  0
   69.3083   17.7122   55.4838 H   0  0
   68.1675   14.7009   52.6295 H   0  0
   67.8440   16.4253   50.9174 H   0  0
   68.5221   20.0595   51.6437 H   0  0
   69.1103   20.6217   49.2395 H   0  0
   67.5777   21.2327   49.8454 H   0  0
   62.7623   23.3094   47.5797 H   0  0
   66.1450   21.7370   45.6463 H   0  0
   64.0289   22.7087   50.7916 H   0  0
   63.1434   21.2266   50.3724 H   0  0
   62.4827   22.8099   49.9371 H   0  0
  1  5  1  0
  1  7  2  0
  1 28  1  0
  2  3  2  0
  2  7  1  0
  2 29  1  0
  3  4  1  0
  3 30  1  0
  4  5  2  0
  4  6  1  0
  5 31  1  0
  7  8  1  0
  8  9  1  0
  9 12  2  0
  9 13  1  0
 10 11  2  0
 10 14  1  0
 10 15  1  0
 11 12  1  0
 11 32  1  0
 12 33  1  0
 13 14  2  0
 13 34  1  0
 14 35  1  0
 15 16  1  0
 15 36  1  0
 16 17  2  0
 16 18  1  0
 18 19  1  0
 18 37  1  0
 18 38  1  0
 19 20  1  0
 20 23  1  0
 20 24  2  0
 21 22  2  0
 21 25  1  0
 21 39  1  0
 22 24  1  0
 22 27  1  0
 23 25  1  0
 23 40  1  0
 25 26  2  0
 27 41  1  0
 27 42  1  0
 27 43  1  0
M  END
> <Name>
ligand_48

> <IC50 (nM)>
200000

$$$$
ligand_91
  SciTegic07132122123D

 31 34  0  0  0  0            999 V2000
   72.1754   21.3664   53.4568 C   0  0
   73.2506   22.2420   53.2660 C   0  0
   73.3040   23.4799   53.9135 C   0  0
   72.2834   23.8840   54.7844 C   0  0
   71.1679   21.7987   54.3252 C   0  0
   69.9785   21.2711   54.7466 N   0  0
   71.2018   23.0179   54.9919 C   0  0
   70.0966   23.1413   55.7952 N   0  0
   69.3701   22.0365   55.6658 N   0  0
   69.5041   19.9894   54.5210 O   0  0
   68.7967   19.9380   53.3624 C   0  0
   68.6986   20.8416   52.5440 O   0  0
   68.1930   18.6318   53.2221 C   0  0
   67.4630   18.1444   52.1509 C   0  0
   67.0526   16.8178   52.4480 C   0  0
   67.5443   16.5133   53.7170 C   0  0
   68.2279   17.6228   54.1611 N   0  0
   66.3033   15.8483   51.7563 C   0  0
   66.0774   14.6155   52.3681 C   0  0
   66.5728   14.3279   53.6339 C   0  0
   67.3216   15.2770   54.3381 C   0  0
   65.3620   13.6841   51.7198 F   0  0
   72.1240   20.4128   52.9421 H   0  0
   74.0606   21.9601   52.5945 H   0  0
   74.1506   24.1405   53.7395 H   0  0
   72.3255   24.8414   55.2922 H   0  0
   67.2451   18.6974   51.2444 H   0  0
   68.6819   17.6918   55.0623 H   0  0
   65.9030   16.0470   50.7685 H   0  0
   66.3704   13.3556   54.0738 H   0  0
   67.7057   15.0531   55.3284 H   0  0
  1  2  1  0
  1  5  2  0
  1 23  1  0
  2  3  2  0
  2 24  1  0
  3  4  1  0
  3 25  1  0
  4  7  2  0
  4 26  1  0
  5  6  1  0
  5  7  1  0
  6  9  1  0
  6 10  1  0
  7  8  1  0
  8  9  2  0
 10 11  1  0
 11 12  2  0
 11 13  1  0
 13 14  2  0
 13 17  1  0
 14 15  1  0
 14 27  1  0
 15 16  1  0
 15 18  2  0
 16 17  1  0
 16 21  2  0
 17 28  1  0
 18 19  1  0
 18 29  1  0
 19 20  2  0
 19 22  1  0
 20 21  1  0
 20 30  1  0
 21 31  1  0
M  END
> <Name>
ligand_91

$$$$
ligand_36
  SciTegic07132122123D

 51 54  0  0  0  0            999 V2000
   67.7487   21.3392   45.8160 C   0  0
   67.0961   21.3928   44.5782 C   0  0
   67.8313   21.5703   43.4088 C   0  0
   69.2152   21.6956   43.4805 C   0  0
   69.8671   21.6408   44.7190 C   0  0
   69.1484   21.4579   45.9072 C   0  0
   66.7690   21.1281   47.2265 Cl  0  0
   69.7672   21.4080   47.1851 N   0  0
   71.1233   21.4467   47.4669 C   0  0
   72.0284   21.4259   46.6346 O   0  0
   71.4497   21.5728   48.9398 C   0  0
   71.3355   19.9544   49.7379 S   0  0
   69.8792   20.2377   50.6914 C   0  0
   67.7068   20.9218   50.8548 C   0  0
   68.8199   20.0597   52.7038 C   0  0
   67.6526   20.5699   52.1821 C   0  0
   68.8043   20.7657   50.0860 N   0  0
   69.9387   19.8915   51.9760 N   0  0
   68.9273   19.5780   54.0753 C   0  0
   68.6611   20.3629   55.1853 C   0  0
   69.4415   18.2698   54.4418 C   0  0
   69.4747   18.1172   55.8177 C   0  0
   68.9171   19.5046   56.6408 S   0  0
   68.1396   22.0490   55.2504 S   0  0
   69.6945   22.8652   54.8087 C   0  0
   69.9090   17.2540   53.4366 C   0  0
   69.9239   16.9792   56.5626 C   0  0
   71.2038   15.7605   57.8973 C   0  0
   70.2706   14.8044   57.5478 C   0  0
   69.0778   15.4837   56.5266 S   0  0
   70.9884   17.0084   57.3377 N   0  0
   72.3828   15.5779   58.7784 C   0  0
   66.0146   21.2972   44.5218 H   0  0
   67.3300   21.6129   42.4439 H   0  0
   69.7961   21.8378   42.5700 H   0  0
   70.9469   21.7492   44.7174 H   0  0
   69.1452   21.2668   47.9865 H   0  0
   72.4827   21.9258   49.0307 H   0  0
   70.8139   22.3338   49.4040 H   0  0
   66.8387   21.3426   50.3528 H   0  0
   66.7483   20.6791   52.7665 H   0  0
   69.5589   23.9485   54.8669 H   0  0
   69.9943   22.6098   53.7892 H   0  0
   70.4894   22.5773   55.5023 H   0  0
   70.0416   16.2595   53.8672 H   0  0
   70.8743   17.5572   53.0182 H   0  0
   69.1850   17.1564   52.6209 H   0  0
   70.2262   13.7674   57.8435 H   0  0
   72.4417   14.5541   59.1611 H   0  0
   72.3258   16.2591   59.6331 H   0  0
   73.3040   15.7901   58.2271 H   0  0
  1  2  2  0
  1  6  1  0
  1  7  1  0
  2  3  1  0
  2 33  1  0
  3  4  2  0
  3 34  1  0
  4  5  1  0
  4 35  1  0
  5  6  2  0
  5 36  1  0
  6  8  1  0
  8  9  1  0
  8 37  1  0
  9 10  2  0
  9 11  1  0
 11 12  1  0
 11 38  1  0
 11 39  1  0
 12 13  1  0
 13 17  2  0
 13 18  1  0
 14 16  2  0
 14 17  1  0
 14 40  1  0
 15 16  1  0
 15 18  2  0
 15 19  1  0
 16 41  1  0
 19 20  2  0
 19 21  1  0
 20 23  1  0
 20 24  1  0
 21 22  2  0
 21 26  1  0
 22 23  1  0
 22 27  1  0
 24 25  1  0
 25 42  1  0
 25 43  1  0
 25 44  1  0
 26 45  1  0
 26 46  1  0
 26 47  1  0
 27 30  1  0
 27 31  2  0
 28 29  2  0
 28 31  1  0
 28 32  1  0
 29 30  1  0
 29 48  1  0
 32 49  1  0
 32 50  1  0
 32 51  1  0
M  END
> <Name>
ligand_36

> <IC50 (nM)>
12000

$$$$
ligand_37
  SciTegic07132122123D

 43 46  0  0  0  0            999 V2000
   69.0731   16.9209   55.8826 C   0  0
   68.3072   15.7997   55.5314 C   0  0
   68.7823   14.5055   55.7699 C   0  0
   70.0378   14.3268   56.3430 C   0  0
   70.8166   15.4306   56.6747 C   0  0
   70.3304   16.7243   56.4568 C   0  0
   70.6242   12.7388   56.6508 Cl  0  0
   68.5134   18.1887   55.6306 N   0  0
   69.0460   19.4287   55.9423 C   0  0
   70.1050   19.6264   56.5360 O   0  0
   68.1499   20.5905   55.5391 C   0  0
   68.9029   21.5547   54.2047 S   0  0
   68.5979   20.5066   52.8103 C   0  0
   68.0321   19.1063   50.5722 C   0  0
   68.8812   20.1905   50.5596 C   0  0
   67.5042   18.7777   51.7972 C   0  0
   67.7624   19.4589   52.9315 N   0  0
   69.1805   20.8950   51.6689 N   0  0
   69.4733   20.6604   49.3119 C   0  0
   70.5429   21.5332   49.2625 C   0  0
   69.6377   20.8869   47.1050 C   0  0
   68.9787   20.2770   48.0735 N   0  0
   70.9316   21.8944   47.6354 S   0  0
   69.2626   20.7133   45.6635 C   0  0
   70.0248   21.1561   44.5985 C   0  0
   67.9587   20.0596   43.9858 C   0  0
   68.0766   20.0862   45.2943 N   0  0
   69.2496   20.7775   43.1126 S   0  0
   66.8063   19.4595   43.2635 C   0  0
   67.3279   15.9185   55.0740 H   0  0
   68.1687   13.6444   55.5165 H   0  0
   71.8025   15.3020   57.1112 H   0  0
   70.9671   17.5539   56.7489 H   0  0
   67.6331   18.1936   55.1277 H   0  0
   67.1369   20.2670   55.2824 H   0  0
   68.0530   21.2400   56.4161 H   0  0
   67.7901   18.5519   49.6742 H   0  0
   66.8258   17.9353   51.9001 H   0  0
   71.0936   21.9680   50.0859 H   0  0
   70.9756   21.6699   44.5892 H   0  0
   66.0816   19.0471   43.9730 H   0  0
   67.1371   18.6462   42.6099 H   0  0
   66.2925   20.2117   42.6565 H   0  0
  1  2  2  0
  1  6  1  0
  1  8  1  0
  2  3  1  0
  2 30  1  0
  3  4  2  0
  3 31  1  0
  4  5  1  0
  4  7  1  0
  5  6  2  0
  5 32  1  0
  6 33  1  0
  8  9  1  0
  8 34  1  0
  9 10  2  0
  9 11  1  0
 11 12  1  0
 11 35  1  0
 11 36  1  0
 12 13  1  0
 13 17  1  0
 13 18  2  0
 14 15  2  0
 14 16  1  0
 14 37  1  0
 15 18  1  0
 15 19  1  0
 16 17  2  0
 16 38  1  0
 19 20  2  0
 19 22  1  0
 20 23  1  0
 20 39  1  0
 21 22  2  0
 21 23  1  0
 21 24  1  0
 24 25  2  0
 24 27  1  0
 25 28  1  0
 25 40  1  0
 26 27  2  0
 26 28  1  0
 26 29  1  0
 29 41  1  0
 29 42  1  0
 29 43  1  0
M  END
> <Name>
ligand_37

> <IC50 (nM)>
14000

$$$$
ligand_89
  SciTegic07132122123D

 31 34  0  0  0  0            999 V2000
   67.4146   17.3511   52.3667 C   0  0
   66.4878   16.4977   51.7575 C   0  0
   66.2834   15.1932   52.2201 C   0  0
   67.0071   14.6927   53.3112 C   0  0
   68.1179   16.8276   53.4556 C   0  0
   69.0656   17.3265   54.3062 N   0  0
   67.9433   15.5325   53.9308 C   0  0
   68.7957   15.3065   54.9826 N   0  0
   69.5117   16.4084   55.1776 N   0  0
   69.7407   18.5313   54.1905 O   0  0
   69.0833   19.5196   54.8380 C   0  0
   67.9730   19.4470   55.3415 O   0  0
   69.8946   20.7695   54.8434 C   0  0
   71.1979   20.8210   54.3161 C   0  0
   69.3201   21.9154   55.4103 C   0  0
   70.0155   23.1276   55.4674 C   0  0
   71.3089   23.1519   54.9371 C   0  0
   71.9151   22.0343   54.3651 C   0  0
   72.2155   24.1868   54.8652 N   0  0
   73.3723   23.7638   54.2672 C   0  0
   73.2150   22.4339   53.9459 C   0  0
   67.5661   18.3671   52.0183 H   0  0
   65.9092   16.8565   50.9077 H   0  0
   65.5533   14.5561   51.7258 H   0  0
   66.8563   13.6799   53.6685 H   0  0
   71.6719   19.9473   53.8795 H   0  0
   68.3126   21.8725   55.8237 H   0  0
   69.5669   24.0105   55.9138 H   0  0
   72.0463   25.1204   55.2127 H   0  0
   74.2048   24.4398   54.1252 H   0  0
   73.9617   21.8154   53.4648 H   0  0
  1  2  1  0
  1  5  2  0
  1 22  1  0
  2  3  2  0
  2 23  1  0
  3  4  1  0
  3 24  1  0
  4  7  2  0
  4 25  1  0
  5  6  1  0
  5  7  1  0
  6  9  1  0
  6 10  1  0
  7  8  1  0
  8  9  2  0
 10 11  1  0
 11 12  2  0
 11 13  1  0
 13 14  1  0
 13 15  2  0
 14 18  2  0
 14 26  1  0
 15 16  1  0
 15 27  1  0
 16 17  2  0
 16 28  1  0
 17 18  1  0
 17 19  1  0
 18 21  1  0
 19 20  1  0
 19 29  1  0
 20 21  2  0
 20 30  1  0
 21 31  1  0
M  END
> <Name>
ligand_89

$$$$
ligand_71
  SciTegic07132122123D

 29 30  0  0  0  0            999 V2000
   72.6265   22.6673   54.0029 C   0  0
   70.3211   22.4765   54.7107 C   0  0
   71.3182   23.1736   54.0249 C   0  0
   72.9429   21.4677   54.6580 C   0  0
   71.9437   20.7726   55.3430 C   0  0
   70.6381   21.2770   55.3584 C   0  0
   69.3763   20.4122   56.2696 S   0  0
   70.0409   19.6455   57.3067 O   0  0
   68.3474   21.3769   56.6097 O   0  0
   68.6583   19.2521   55.1254 C   0  0
   69.1618   17.9479   55.0582 C   0  0
   67.5664   19.6444   54.3425 C   0  0
   66.9793   18.7261   53.4690 C   0  0
   67.4859   17.4199   53.3952 C   0  0
   68.5768   17.0277   54.1855 C   0  0
   73.6835   23.4217   53.3219 N   0  3
   73.3752   24.4906   52.7718 O   0  0
   74.8412   22.9771   53.3700 O   0  5
   66.8424   16.4420   52.5122 N   0  3
   67.3024   15.2897   52.4848 O   0  0
   65.8422   16.8030   51.8724 O   0  5
   69.3114   22.8827   54.7473 H   0  0
   71.0671   24.1116   53.5320 H   0  0
   73.9587   21.0754   54.6585 H   0  0
   72.1951   19.8543   55.8713 H   0  0
   69.9933   17.6355   55.6882 H   0  0
   67.1576   20.6509   54.4166 H   0  0
   66.1237   19.0347   52.8702 H   0  0
   68.9667   16.0116   54.1457 H   0  0
  1  3  2  0
  1  4  1  0
  1 16  1  0
  2  3  1  0
  2  6  2  0
  2 22  1  0
  3 23  1  0
  4  5  2  0
  4 24  1  0
  5  6  1  0
  5 25  1  0
  6  7  1  0
  7  8  2  0
  7  9  2  0
  7 10  1  0
 10 11  2  0
 10 12  1  0
 11 15  1  0
 11 26  1  0
 12 13  2  0
 12 27  1  0
 13 14  1  0
 13 28  1  0
 14 15  2  0
 14 19  1  0
 15 29  1  0
 16 17  2  0
 16 18  1  0
 19 20  2  0
 19 21  1  0
M  CHG  4  16   1  18  -1  19   1  21  -1
M  END
> <Name>
ligand_71

> <IC50 (nM)>
25000

$$$$
ligand_85
  SciTegic07132122123D

 35 37  0  0  0  0            999 V2000
   72.0012   21.3516   53.8604 C   0  0
   72.6960   22.5104   53.4895 C   0  0
   72.3533   23.7696   53.9987 C   0  0
   71.2922   23.9108   54.9043 C   0  0
   70.9526   21.5189   54.7680 C   0  0
   70.0655   20.6640   55.3690 N   0  0
   70.5843   22.7579   55.2870 C   0  0
   69.5075   22.5991   56.1246 N   0  0
   69.1723   21.3134   56.1335 N   0  0
   69.8348   19.3274   55.0574 O   0  0
   70.5708   18.5065   55.8428 C   0  0
   71.4862   18.8402   56.5797 O   0  0
   70.1330   17.0857   55.6907 C   0  0
   69.0339   16.6988   54.9226 C   0  0
   70.8435   16.0945   56.3713 C   0  0
   70.4580   14.7447   56.2845 C   0  0
   69.3528   14.3216   55.5253 C   0  0
   68.6595   15.3420   54.8468 C   0  0
   68.9704   12.9842   55.4522 N   0  0
   69.6822   11.9561   56.2010 C   0  0
   67.8041   12.5753   54.6798 C   0  0
   72.2759   20.3764   53.4723 H   0  0
   73.5260   22.4225   52.7907 H   0  0
   72.9153   24.6494   53.6898 H   0  0
   71.0178   24.8843   55.2986 H   0  0
   68.4396   17.4297   54.3801 H   0  0
   71.7032   16.3575   56.9857 H   0  0
   71.0534   14.0263   56.8427 H   0  0
   67.7903   15.1041   54.2383 H   0  0
   69.6278   12.1500   57.2779 H   0  0
   70.7322   11.9053   55.8927 H   0  0
   69.2572   10.9602   56.0351 H   0  0
   67.9213   12.8429   53.6239 H   0  0
   66.8938   13.0402   55.0741 H   0  0
   67.6495   11.4914   54.7140 H   0  0
  1  2  1  0
  1  5  2  0
  1 22  1  0
  2  3  2  0
  2 23  1  0
  3  4  1  0
  3 24  1  0
  4  7  2  0
  4 25  1  0
  5  6  1  0
  5  7  1  0
  6  9  1  0
  6 10  1  0
  7  8  1  0
  8  9  2  0
 10 11  1  0
 11 12  2  0
 11 13  1  0
 13 14  2  0
 13 15  1  0
 14 18  1  0
 14 26  1  0
 15 16  2  0
 15 27  1  0
 16 17  1  0
 16 28  1  0
 17 18  2  0
 17 19  1  0
 18 29  1  0
 19 20  1  0
 19 21  1  0
 20 30  1  0
 20 31  1  0
 20 32  1  0
 21 33  1  0
 21 34  1  0
 21 35  1  0
M  END
> <Name>
ligand_85

$$$$
ligand_128
  SciTegic07132122123D

 53 57  0  0  0  0            999 V2000
   72.5337   12.9481   57.3844 C   0  0
   72.8923   11.7941   56.5038 C   0  0
   73.9257   11.1554   57.2189 N   0  0
   74.2615   11.7925   58.4234 N   0  0
   73.4964   12.8453   58.5119 C   0  0
   72.3590   11.5424   55.4402 O   0  0
   74.6822   10.0018   56.8541 C   0  0
   75.6745    9.5354   57.7378 C   0  0
   76.4607    8.4233   57.4364 C   0  0
   76.2719    7.7505   56.2356 C   0  0
   75.2969    8.1710   55.3174 C   0  0
   74.5041    9.3023   55.6450 C   0  0
   73.6264   13.8246   59.6039 C   0  0
   73.9331   15.1604   59.3165 C   0  0
   74.1263   16.0702   60.3578 C   0  0
   74.0288   15.6430   61.6829 C   0  0
   73.7320   14.3117   61.9756 C   0  0
   73.5412   13.3969   60.9347 C   0  0
   75.1281    7.4040   54.0077 C   0  0
   75.8881    6.3966   53.8094 O   0  5
   74.2388    7.8194   53.1984 O   0  0
   71.5792   13.8916   57.2934 C   0  0
   70.5336   14.1856   56.2891 C   0  0
   70.2170   15.5358   56.0635 C   0  0
   69.1553   15.9095   55.2253 C   0  0
   68.3496   14.9538   54.5899 C   0  0
   68.6749   13.6045   54.8121 C   0  0
   69.7473   13.2247   55.6506 C   0  0
   67.2003   15.3694   53.7479 C   0  0
   65.9141   14.8291   53.9397 C   0  0
   64.8234   15.2480   53.1673 C   0  0
   64.9998   16.2187   52.1851 C   0  0
   66.2593   16.7702   51.9695 C   0  0
   67.3462   16.3480   52.7439 C   0  0
   75.8560   10.0368   58.6845 H   0  0
   77.2200    8.0843   58.1331 H   0  0
   76.8867    6.8838   55.9957 H   0  0
   73.7542    9.6157   54.9195 H   0  0
   74.0527   15.4835   58.2846 H   0  0
   74.3626   17.1086   60.1358 H   0  0
   74.1976   16.3475   62.4945 H   0  0
   73.6665   13.9903   63.0138 H   0  0
   73.3363   12.3523   61.1587 H   0  0
   71.5226   14.6081   58.1103 H   0  0
   70.7938   16.3228   56.5444 H   0  0
   68.9483   16.9687   55.0939 H   0  0
   68.0966   12.8201   54.3236 H   0  0
   69.9393   12.1633   55.7965 H   0  0
   65.7567   14.0737   54.7075 H   0  0
   63.8354   14.8220   53.3318 H   0  0
   64.1528   16.5455   51.5849 H   0  0
   66.3913   17.5252   51.1967 H   0  0
   68.3317   16.7690   52.5498 H   0  0
  1  2  1  0
  1  5  1  0
  1 22  2  0
  2  3  1  0
  2  6  2  0
  3  4  1  0
  3  7  1  0
  4  5  2  0
  5 13  1  0
  7  8  2  0
  7 12  1  0
  8  9  1  0
  8 35  1  0
  9 10  2  0
  9 36  1  0
 10 11  1  0
 10 37  1  0
 11 12  2  0
 11 19  1  0
 12 38  1  0
 13 14  2  0
 13 18  1  0
 14 15  1  0
 14 39  1  0
 15 16  2  0
 15 40  1  0
 16 17  1  0
 16 41  1  0
 17 18  2  0
 17 42  1  0
 18 43  1  0
 19 20  1  0
 19 21  2  0
 22 23  1  0
 22 44  1  0
 23 24  2  0
 23 28  1  0
 24 25  1  0
 24 45  1  0
 25 26  2  0
 25 46  1  0
 26 27  1  0
 26 29  1  0
 27 28  2  0
 27 47  1  0
 28 48  1  0
 29 30  2  0
 29 34  1  0
 30 31  1  0
 30 49  1  0
 31 32  2  0
 31 50  1  0
 32 33  1  0
 32 51  1  0
 33 34  2  0
 33 52  1  0
 34 53  1  0
M  CHG  1  20  -1
M  END
> <Name>
ligand_128

> <IC50 (nM)>
6700

$$$$
ligand_59
  SciTegic07132122123D

 51 53  0  0  0  0            999 V2000
   73.2565   23.5142   54.0058 C   0  0
   73.9445   24.7321   54.0854 C   0  0
   75.2951   24.8201   53.7300 C   0  0
   75.9881   23.6890   53.2821 C   0  0
   75.2934   22.4743   53.1994 C   0  0
   73.9420   22.3869   53.5585 C   0  0
   71.9022   23.5137   54.4025 N   0  0
   71.0221   22.4304   54.4358 C   0  0
   71.2790   21.2873   54.0717 O   0  0
   69.6644   22.8537   54.9953 C   0  0
   68.5831   21.4629   55.4195 S   0  0
   77.4533   23.7500   52.8910 C   0  0
   77.6762   24.6772   51.6937 C   0  0
   78.3354   24.1630   54.0719 C   0  0
   68.2465   20.8290   53.7954 C   0  0
   67.6416   19.8258   51.3741 C   0  0
   67.5591   19.0375   52.5084 C   0  0
   68.0221   21.1360   51.5546 C   0  0
   67.8663   19.5431   53.7242 N   0  0
   68.3109   21.6697   52.7511 N   0  0
   67.1551   17.6090   52.4842 C   0  0
   66.0988   15.6800   51.3883 C   0  0
   66.4256   14.8526   52.4576 C   0  0
   67.1029   15.3976   53.5452 C   0  0
   67.4607   16.7518   53.5581 C   0  0
   66.4540   17.0378   51.4059 C   0  0
   66.1461   13.5202   52.5650 O   0  0
   65.4561   12.9089   51.4803 C   0  0
   73.4429   25.6316   54.4313 H   0  0
   75.8008   25.7809   53.8099 H   0  0
   75.7968   21.5729   52.8551 H   0  0
   73.4588   21.4174   53.4779 H   0  0
   71.5408   24.4093   54.7070 H   0  0
   69.8378   23.4130   55.9216 H   0  0
   69.1757   23.5356   54.2919 H   0  0
   77.7753   22.7456   52.5852 H   0  0
   77.0556   24.3742   50.8430 H   0  0
   78.7230   24.6464   51.3726 H   0  0
   77.4318   25.7185   51.9307 H   0  0
   78.1852   23.4930   54.9259 H   0  0
   78.1210   25.1837   54.4068 H   0  0
   79.3942   24.1202   53.7946 H   0  0
   67.4311   19.4536   50.3811 H   0  0
   68.1073   21.8142   50.7105 H   0  0
   65.5658   15.3080   50.5209 H   0  0
   67.3581   14.7637   54.3916 H   0  0
   67.9973   17.1367   54.4252 H   0  0
   66.1564   17.6409   50.5522 H   0  0
   65.3167   11.8517   51.7256 H   0  0
   66.0445   12.9643   50.5586 H   0  0
   64.4652   13.3545   51.3439 H   0  0
  1  2  2  0
  1  6  1  0
  1  7  1  0
  2  3  1  0
  2 29  1  0
  3  4  2  0
  3 30  1  0
  4  5  1  0
  4 12  1  0
  5  6  2  0
  5 31  1  0
  6 32  1  0
  7  8  1  0
  7 33  1  0
  8  9  2  0
  8 10  1  0
 10 11  1  0
 10 34  1  0
 10 35  1  0
 11 15  1  0
 12 13  1  0
 12 14  1  0
 12 36  1  0
 13 37  1  0
 13 38  1  0
 13 39  1  0
 14 40  1  0
 14 41  1  0
 14 42  1  0
 15 19  2  0
 15 20  1  0
 16 17  2  0
 16 18  1  0
 16 43  1  0
 17 19  1  0
 17 21  1  0
 18 20  2  0
 18 44  1  0
 21 25  2  0
 21 26  1  0
 22 23  1  0
 22 26  2  0
 22 45  1  0
 23 24  2  0
 23 27  1  0
 24 25  1  0
 24 46  1  0
 25 47  1  0
 26 48  1  0
 27 28  1  0
 28 49  1  0
 28 50  1  0
 28 51  1  0
M  END
> <Name>
ligand_59

> <IC50 (nM)>
400000

$$$$
ligand_99
  SciTegic07132122123D

 35 36  0  0  0  0            999 V2000
   69.1559   13.2401   55.2973 C   0  0
   69.4062   14.0091   54.1585 C   0  0
   69.7709   15.3516   54.2828 C   0  0
   69.8773   15.9284   55.5487 C   0  0
   69.6657   15.1476   56.6869 C   0  0
   69.2806   13.8103   56.5648 C   0  0
   69.8291   15.7187   58.0350 C   0  0
   71.2158   15.9981   58.5519 C   0  0
   68.8110   16.0596   58.6403 O   0  0
   72.3241   15.1689   57.9735 C   0  0
   72.3164   13.6621   58.2320 C   0  0
   73.2574   15.6501   57.3286 O   0  0
   73.2201   12.9489   57.6962 O   0  0
   71.3690   13.2472   58.9758 O   0  5
   70.2406   17.2466   55.6263 O   0  0
   69.0799   18.0748   55.7615 C   0  0
   69.4970   19.5153   55.5772 C   0  0
   69.3684   20.4398   56.6234 C   0  0
   69.7395   21.7746   56.4382 C   0  0
   70.2403   22.1917   55.2064 C   0  0
   70.3894   21.2801   54.1636 C   0  0
   70.0184   19.9465   54.3483 C   0  0
   70.6682   23.8443   54.9671 Cl  0  0
   68.8948   12.1888   55.2040 H   0  0
   69.3352   13.5569   53.1733 H   0  0
   69.9820   15.9420   53.3964 H   0  0
   69.1249   13.2055   57.4566 H   0  0
   71.2206   15.8519   59.6378 H   0  0
   71.4369   17.0541   58.3597 H   0  0
   68.3247   17.8321   55.0015 H   0  0
   68.6289   17.9387   56.7505 H   0  0
   68.9839   20.1231   57.5914 H   0  0
   69.6390   22.4766   57.2606 H   0  0
   70.7980   21.5926   53.2080 H   0  0
   70.1470   19.2362   53.5339 H   0  0
  1  2  1  0
  1  6  2  0
  1 24  1  0
  2  3  2  0
  2 25  1  0
  3  4  1  0
  3 26  1  0
  4  5  2  0
  4 15  1  0
  5  6  1  0
  5  7  1  0
  6 27  1  0
  7  8  1  0
  7  9  2  0
  8 10  1  0
  8 28  1  0
  8 29  1  0
 10 11  1  0
 10 12  2  0
 11 13  2  0
 11 14  1  0
 15 16  1  0
 16 17  1  0
 16 30  1  0
 16 31  1  0
 17 18  2  0
 17 22  1  0
 18 19  1  0
 18 32  1  0
 19 20  2  0
 19 33  1  0
 20 21  1  0
 20 23  1  0
 21 22  2  0
 21 34  1  0
 22 35  1  0
M  CHG  1  14  -1
M  END
> <Name>
ligand_99

> <IC50 (nM)>
28700

$$$$
ligand_88
  SciTegic07132122123D

 30 33  0  0  0  0            999 V2000
   70.5950   20.7357   53.3012 C   0  0
   71.6305   21.6779   53.2349 C   0  0
   71.7020   22.7556   54.1258 C   0  0
   70.7286   22.9287   55.1201 C   0  0
   69.6415   20.9280   54.3043 C   0  0
   68.5214   20.2457   54.7013 N   0  0
   69.6813   21.9937   55.1989 C   0  0
   68.5974   21.9295   56.0389 N   0  0
   67.8691   20.8718   55.6951 N   0  0
   67.8874   19.1996   54.0373 O   0  0
   68.3608   18.0000   54.4487 C   0  0
   69.3407   17.8123   55.1531 O   0  0
   67.5346   16.8806   53.8966 C   0  0
   66.3015   17.1031   53.2523 C   0  0
   68.0185   15.5713   54.0650 C   0  0
   67.2995   14.4587   53.5972 C   0  0
   66.0707   14.6683   52.9557 C   0  0
   65.6040   15.9713   52.8003 C   0  0
   65.1890   13.7586   52.4225 N   0  0
   64.1970   14.4791   51.9535 C   0  0
   64.3991   15.8158   52.1583 N   0  0
   70.5501   19.8940   52.6183 H   0  0
   72.3991   21.5580   52.4735 H   0  0
   72.5226   23.4689   54.0502 H   0  0
   70.7797   23.7665   55.8103 H   0  0
   65.8904   18.0982   53.1192 H   0  0
   68.9677   15.4002   54.5722 H   0  0
   67.6737   13.4485   53.7311 H   0  0
   63.3129   14.0953   51.4619 H   0  0
   63.7636   16.5517   51.8855 H   0  0
  1  2  1  0
  1  5  2  0
  1 22  1  0
  2  3  2  0
  2 23  1  0
  3  4  1  0
  3 24  1  0
  4  7  2  0
  4 25  1  0
  5  6  1  0
  5  7  1  0
  6  9  1  0
  6 10  1  0
  7  8  1  0
  8  9  2  0
 10 11  1  0
 11 12  2  0
 11 13  1  0
 13 14  1  0
 13 15  2  0
 14 18  2  0
 14 26  1  0
 15 16  1  0
 15 27  1  0
 16 17  2  0
 16 28  1  0
 17 18  1  0
 17 19  1  0
 18 21  1  0
 19 20  2  0
 20 21  1  0
 20 29  1  0
 21 30  1  0
M  END
> <Name>
ligand_88

$$$$
ligand_77
  SciTegic07132122123D

 37 39  0  0  0  0            999 V2000
   69.3825   21.1406   54.8512 C   0  0
   69.4610   22.0304   55.9042 C   0  0
   70.5787   22.8640   55.6445 C   0  0
   71.1127   22.4213   54.4572 C   0  0
   68.8786   18.7340   55.0396 N   0  0
   68.3154   17.5397   54.7250 C   0  0
   68.4580   20.0194   54.5110 C   0  0
   70.3944   21.3799   53.9677 O   0  0
   66.9581   17.3597   53.6894 S   0  0
   66.9702   15.6598   53.8057 C   0  0
   66.0331   14.8366   53.1059 C   0  0
   65.2864   14.1495   52.5434 N   0  0
   68.7449   16.3025   55.1806 C   0  0
   70.1284   14.6437   56.5223 C   0  0
   69.8713   16.0828   56.0929 C   0  0
   67.9759   15.2098   54.6389 C   0  0
   68.2851   13.7793   54.9892 C   0  0
   69.7534   13.5890   55.4528 C   0  0
   69.8956   12.1858   56.0730 C   0  0
   70.7180   13.6772   54.2517 C   0  0
   70.5502   17.0026   56.5491 O   0  0
   68.7936   22.0693   56.7540 H   0  0
   70.9523   23.6801   56.2482 H   0  0
   71.9572   22.7189   53.8537 H   0  0
   69.7084   18.7550   55.6387 H   0  0
   68.3788   19.9691   53.4177 H   0  0
   67.4606   20.2620   54.8978 H   0  0
   71.1898   14.5526   56.7842 H   0  0
   69.5472   14.4789   57.4385 H   0  0
   68.0794   13.1241   54.1336 H   0  0
   67.5991   13.4804   55.7931 H   0  0
   69.6369   11.4052   55.3487 H   0  0
   69.2367   12.0664   56.9404 H   0  0
   70.9227   12.0037   56.4090 H   0  0
   70.4802   12.9146   53.5013 H   0  0
   71.7547   13.5162   54.5690 H   0  0
   70.6760   14.6509   53.7536 H   0  0
  1  2  2  0
  1  7  1  0
  1  8  1  0
  2  3  1  0
  2 22  1  0
  3  4  2  0
  3 23  1  0
  4  8  1  0
  4 24  1  0
  5  6  1  0
  5  7  1  0
  5 25  1  0
  6  9  1  0
  6 13  2  0
  7 26  1  0
  7 27  1  0
  9 10  1  0
 10 11  1  0
 10 16  2  0
 11 12  3  0
 13 15  1  0
 13 16  1  0
 14 15  1  0
 14 18  1  0
 14 28  1  0
 14 29  1  0
 15 21  2  0
 16 17  1  0
 17 18  1  0
 17 30  1  0
 17 31  1  0
 18 19  1  0
 18 20  1  0
 19 32  1  0
 19 33  1  0
 19 34  1  0
 20 35  1  0
 20 36  1  0
 20 37  1  0
M  END
> <Name>
ligand_77

> <IC50 (nM)>
16000

$$$$
ligand_98
  SciTegic07132122123D

 35 36  0  0  0  0            999 V2000
   68.1782   19.6458   52.1585 C   0  0
   68.8206   20.2643   53.2330 C   0  0
   69.0572   19.5506   54.4069 C   0  0
   68.6620   18.2129   54.4909 C   0  0
   68.0003   17.5860   53.4226 C   0  0
   67.7711   18.3121   52.2498 C   0  0
   67.5781   16.1578   53.5919 C   0  0
   66.7948   15.4518   52.5108 C   0  0
   67.9275   15.5562   54.6113 O   0  0
   65.4026   15.9699   52.2928 C   0  0
   64.4700   15.1394   51.4065 C   0  0
   64.9916   17.0431   52.7377 O   0  0
   63.2540   15.4957   51.3065 O   0  0
   65.0111   14.1381   50.8319 O   0  5
   69.7151   20.0404   55.5035 O   0  0
   69.5526   21.4341   55.7862 C   0  0
   70.6778   22.3091   55.2638 C   0  0
   70.5518   23.7020   55.3526 C   0  0
   71.5504   24.5333   54.8448 C   0  0
   72.6873   23.9804   54.2603 C   0  0
   72.8341   22.5978   54.1767 C   0  0
   71.8336   21.7660   54.6796 C   0  0
   73.9131   25.0138   53.6337 Cl  0  0
   67.9865   20.2038   51.2451 H   0  0
   69.1389   21.2950   53.1182 H   0  0
   68.8583   17.6585   55.4066 H   0  0
   67.2587   17.8723   51.3987 H   0  0
   66.7231   14.3976   52.8049 H   0  0
   67.3582   15.4926   51.5731 H   0  0
   68.5780   21.8022   55.4392 H   0  0
   69.5504   21.5232   56.8793 H   0  0
   69.6748   24.1548   55.8119 H   0  0
   71.4301   25.6097   54.9088 H   0  0
   73.7238   22.1682   53.7237 H   0  0
   71.9339   20.6837   54.5825 H   0  0
  1  2  1  0
  1  6  2  0
  1 24  1  0
  2  3  2  0
  2 25  1  0
  3  4  1  0
  3 15  1  0
  4  5  2  0
  4 26  1  0
  5  6  1  0
  5  7  1  0
  6 27  1  0
  7  8  1  0
  7  9  2  0
  8 10  1  0
  8 28  1  0
  8 29  1  0
 10 11  1  0
 10 12  2  0
 11 13  2  0
 11 14  1  0
 15 16  1  0
 16 17  1  0
 16 30  1  0
 16 31  1  0
 17 18  2  0
 17 22  1  0
 18 19  1  0
 18 32  1  0
 19 20  2  0
 19 33  1  0
 20 21  1  0
 20 23  1  0
 21 22  2  0
 21 34  1  0
 22 35  1  0
M  CHG  1  14  -1
M  END
> <Name>
ligand_98

> <IC50 (nM)>
13600

$$$$
ligand_90
  SciTegic07132122123D

 31 34  0  0  0  0            999 V2000
   71.9818   21.2149   53.9265 C   0  0
   72.8111   22.2845   53.5701 C   0  0
   72.5337   23.5921   53.9831 C   0  0
   71.4079   23.8772   54.7684 C   0  0
   70.8711   21.5279   54.7150 C   0  0
   69.8616   20.7930   55.2711 N   0  0
   70.5646   22.8178   55.1330 C   0  0
   69.4038   22.8036   55.8652 N   0  0
   68.9592   21.5526   55.9097 N   0  0
   69.5890   19.4564   55.0487 O   0  0
   70.2193   18.6798   55.9638 C   0  0
   71.0066   19.0616   56.8197 O   0  0
   69.8531   17.2977   55.7743 C   0  0
   69.0008   16.6902   54.8676 C   0  0
   68.9982   15.2910   55.1231 C   0  0
   69.8613   15.0695   56.1938 C   0  0
   70.3612   16.2933   56.5686 N   0  0
   68.3390   14.1896   54.5448 C   0  0
   68.5665   12.9072   55.0597 C   0  0
   69.4363   12.7161   56.1312 C   0  0
   70.1025   13.7956   56.7200 C   0  0
   72.2002   20.1993   53.6141 H   0  0
   73.6932   22.0923   52.9615 H   0  0
   73.2004   24.4003   53.6910 H   0  0
   71.1868   24.8901   55.0865 H   0  0
   68.4295   17.1960   54.0991 H   0  0
   71.0111   16.4462   57.3294 H   0  0
   67.6575   14.3278   53.7105 H   0  0
   68.0568   12.0543   54.6183 H   0  0
   69.5995   11.7131   56.5181 H   0  0
   70.7779   13.6440   57.5557 H   0  0
  1  2  1  0
  1  5  2  0
  1 22  1  0
  2  3  2  0
  2 23  1  0
  3  4  1  0
  3 24  1  0
  4  7  2  0
  4 25  1  0
  5  6  1  0
  5  7  1  0
  6  9  1  0
  6 10  1  0
  7  8  1  0
  8  9  2  0
 10 11  1  0
 11 12  2  0
 11 13  1  0
 13 14  2  0
 13 17  1  0
 14 15  1  0
 14 26  1  0
 15 16  1  0
 15 18  2  0
 16 17  1  0
 16 21  2  0
 17 27  1  0
 18 19  1  0
 18 28  1  0
 19 20  2  0
 19 29  1  0
 20 21  1  0
 20 30  1  0
 21 31  1  0
M  END
> <Name>
ligand_90

$$$$
ligand_83
  SciTegic07132122123D

 65 68  0  0  0  0            999 V2000
   68.3901   19.0908   48.7545 C   0  0
   67.2209   18.4342   49.1370 C   0  0
   66.5804   18.7817   50.3270 C   0  0
   67.1047   19.7942   51.1422 C   0  0
   68.2826   20.4467   50.7466 C   0  0
   68.9204   20.0990   49.5563 C   0  0
   66.4233   20.1835   52.4280 C   0  0
   67.1514   19.6693   53.5667 N   0  0
   67.9336   20.4681   54.3482 C   0  0
   68.1227   21.6503   54.0692 O   0  0
   68.4877   19.8735   55.4690 N   0  0
   69.3491   20.7159   56.3127 C   0  0
   70.6866   21.1346   55.6770 C   0  0
   71.7467   20.0528   55.6499 C   0  0
   72.1976   19.4546   54.4544 C   0  0
   73.2262   18.4979   54.5126 C   0  0
   73.7949   18.1264   55.7307 C   0  0
   73.3435   18.7068   56.9094 C   0  0
   72.3315   19.6643   56.8699 C   0  0
   71.6274   19.8237   53.1119 C   0  0
   68.0417   18.6019   56.0498 C   0  0
   69.1321   17.5723   56.0406 C   0  0
   69.5950   16.9759   54.9271 C   0  0
   69.6715   17.1663   57.3740 C   0  0
   69.2587   17.6711   58.4142 O   0  0
   70.6361   16.1964   57.3988 N   0  0
   71.1468   15.5870   56.2485 C   0  0
   70.6409   15.9545   55.0001 C   0  0
   71.1536   15.3489   53.8510 C   0  0
   72.1565   14.6317   56.3582 C   0  0
   72.6829   14.0248   55.2067 C   0  0
   72.1750   14.3861   53.9401 C   0  0
   72.7040   13.7597   52.6783 C   0  0
   73.7921   13.0174   55.3487 C   0  0
   68.8704   18.8365   47.8133 H   0  0
   66.7906   17.6733   48.4888 H   0  0
   65.6550   18.2760   50.5955 H   0  0
   68.6970   21.2429   51.3646 H   0  0
   69.8159   20.6305   49.2434 H   0  0
   66.3143   21.2727   52.4825 H   0  0
   65.4163   19.7538   52.4749 H   0  0
   67.2431   18.6715   53.6341 H   0  0
   68.7769   21.6271   56.5317 H   0  0
   69.5186   20.2210   57.2753 H   0  0
   70.5334   21.5552   54.6797 H   0  0
   71.0971   21.9650   56.2683 H   0  0
   73.5901   18.0278   53.6016 H   0  0
   74.5870   17.3828   55.7588 H   0  0
   73.7815   18.4202   57.8611 H   0  0
   72.0056   20.1172   57.8052 H   0  0
   72.0344   19.1924   52.3143 H   0  0
   71.8737   20.8627   52.8704 H   0  0
   70.5419   19.6897   53.1055 H   0  0
   67.6681   18.8191   57.0569 H   0  0
   67.1703   18.2017   55.5229 H   0  0
   69.2252   17.2517   53.9463 H   0  0
   70.9922   15.9473   58.3121 H   0  0
   70.7663   15.6341   52.8752 H   0  0
   72.5447   14.3637   57.3377 H   0  0
   72.2151   14.1721   51.7892 H   0  0
   72.5195   12.6807   52.6858 H   0  0
   73.7778   13.9479   52.5805 H   0  0
   74.7085   13.3992   54.8874 H   0  0
   73.5117   12.0704   54.8767 H   0  0
   74.0120   12.8053   56.4005 H   0  0
  1  2  2  0
  1  6  1  0
  1 35  1  0
  2  3  1  0
  2 36  1  0
  3  4  2  0
  3 37  1  0
  4  5  1  0
  4  7  1  0
  5  6  2  0
  5 38  1  0
  6 39  1  0
  7  8  1  0
  7 40  1  0
  7 41  1  0
  8  9  1  0
  8 42  1  0
  9 10  2  0
  9 11  1  0
 11 12  1  0
 11 21  1  0
 12 13  1  0
 12 43  1  0
 12 44  1  0
 13 14  1  0
 13 45  1  0
 13 46  1  0
 14 15  2  0
 14 19  1  0
 15 16  1  0
 15 20  1  0
 16 17  2  0
 16 47  1  0
 17 18  1  0
 17 48  1  0
 18 19  2  0
 18 49  1  0
 19 50  1  0
 20 51  1  0
 20 52  1  0
 20 53  1  0
 21 22  1  0
 21 54  1  0
 21 55  1  0
 22 23  2  0
 22 24  1  0
 23 28  1  0
 23 56  1  0
 24 25  2  0
 24 26  1  0
 26 27  1  0
 26 57  1  0
 27 28  1  0
 27 30  2  0
 28 29  2  0
 29 32  1  0
 29 58  1  0
 30 31  1  0
 30 59  1  0
 31 32  2  0
 31 34  1  0
 32 33  1  0
 33 60  1  0
 33 61  1  0
 33 62  1  0
 34 63  1  0
 34 64  1  0
 34 65  1  0
M  END
> <Name>
ligand_83

> <IC50 (nM)>
17200

$$$$
ligand_93
  SciTegic07132122123D

 34 36  0  0  0  0            999 V2000
   70.6157   23.2469   55.3573 C   0  0
   71.5621   23.2682   54.3236 C   0  0
   71.6764   22.1908   53.4381 C   0  0
   70.8646   21.0552   53.5538 C   0  0
   69.7884   22.1176   55.4817 C   0  0
   68.7941   21.8258   56.3793 N   0  0
   69.9305   21.0555   54.5929 C   0  0
   68.9874   20.1566   55.0236 N   0  0
   68.3198   20.6185   56.1010 N   0  0
   68.7886   18.7819   54.6017 C   0  0
   67.9745   18.6597   53.3358 C   0  0
   67.3290   17.3434   53.0254 C   0  0
   67.6368   16.1649   53.7103 C   0  0
   66.3905   17.2892   51.9892 C   0  0
   65.7647   16.0802   51.6515 C   0  0
   66.0548   14.8934   52.3315 C   0  0
   67.0025   14.9606   53.3622 C   0  0
   65.4673   13.6788   52.0319 N   0  0
   67.8537   19.5781   52.5268 O   0  0
   64.4814   13.4999   50.9929 C   0  0
   70.5176   24.0803   56.0454 H   0  0
   72.2077   24.1361   54.2058 H   0  0
   72.4046   22.2305   52.6309 H   0  0
   70.9483   20.2319   52.8526 H   0  0
   68.2879   18.2662   55.4279 H   0  0
   69.7772   18.3387   54.4444 H   0  0
   68.3689   16.1365   54.5112 H   0  0
   66.1334   18.1885   51.4313 H   0  0
   65.0418   16.0903   50.8398 H   0  0
   67.2602   14.0559   53.9106 H   0  0
   65.7173   12.8679   52.5847 H   0  0
   64.1730   12.4502   50.9582 H   0  0
   64.8900   13.7579   50.0105 H   0  0
   63.5879   14.1020   51.1867 H   0  0
  1  2  1  0
  1  5  2  0
  1 21  1  0
  2  3  2  0
  2 22  1  0
  3  4  1  0
  3 23  1  0
  4  7  2  0
  4 24  1  0
  5  6  1  0
  5  7  1  0
  6  9  2  0
  7  8  1  0
  8  9  1  0
  8 10  1  0
 10 11  1  0
 10 25  1  0
 10 26  1  0
 11 12  1  0
 11 19  2  0
 12 13  2  0
 12 14  1  0
 13 17  1  0
 13 27  1  0
 14 15  2  0
 14 28  1  0
 15 16  1  0
 15 29  1  0
 16 17  2  0
 16 18  1  0
 17 30  1  0
 18 20  1  0
 18 31  1  0
 20 32  1  0
 20 33  1  0
 20 34  1  0
M  END
> <Name>
ligand_93

$$$$
ligand_78
  SciTegic07132122123D

 36 38  0  0  0  0            999 V2000
   69.8478   16.9421   55.9829 C   0  0
   69.3718   16.8408   54.6662 C   0  0
   70.1313   18.1984   56.3211 N   0  0
   70.9640   16.3847   58.4454 C   0  0
   69.9917   15.6274   57.1261 S   0  0
   68.8870   15.6720   54.0080 C   0  0
   68.4820   14.7224   53.4778 N   0  0
   69.9639   18.9035   55.1803 N   0  0
   70.3747   20.2305   55.2183 C   0  0
   70.9277   21.0218   54.2262 C   0  0
   71.0561   22.3097   54.7996 C   0  0
   70.3129   21.0318   56.3326 N   0  0
   70.6562   22.3135   56.0767 N   0  0
   69.8228   20.7178   57.6585 C   0  0
   71.5884   23.5544   54.1870 C   0  0
   71.3980   20.6254   52.9368 N   0  3
   71.9636   19.5278   52.8688 O   0  0
   69.3897   18.1368   54.1734 C   0  0
   68.8482   18.6560   52.9452 C   0  0
   68.2552   19.0865   50.5874 C   0  0
   67.6632   19.9905   51.4392 C   0  0
   67.9978   19.7369   52.8020 C   0  0
   69.1977   17.9369   51.4285 S   0  0
   71.2328   21.4253   52.0092 O   0  5
   71.1692   15.6342   59.2137 H   0  0
   70.4143   17.2079   58.9105 H   0  0
   71.9196   16.7528   58.0615 H   0  0
   69.6771   21.6460   58.2188 H   0  0
   70.5690   20.1018   58.1654 H   0  0
   68.8635   20.2022   57.5718 H   0  0
   72.5742   23.3765   53.7458 H   0  0
   71.6946   24.3527   54.9291 H   0  0
   70.9134   23.9118   53.4030 H   0  0
   68.1761   19.0399   49.5096 H   0  0
   67.0184   20.7926   51.1002 H   0  0
   67.6217   20.3287   53.6286 H   0  0
  1  2  1  0
  1  3  2  0
  1  5  1  0
  2  6  1  0
  2 18  2  0
  3  8  1  0
  4  5  1  0
  4 25  1  0
  4 26  1  0
  4 27  1  0
  6  7  3  0
  8  9  1  0
  8 18  1  0
  9 10  2  0
  9 12  1  0
 10 11  1  0
 10 16  1  0
 11 13  2  0
 11 15  1  0
 12 13  1  0
 12 14  1  0
 14 28  1  0
 14 29  1  0
 14 30  1  0
 15 31  1  0
 15 32  1  0
 15 33  1  0
 16 17  2  0
 16 24  1  0
 18 19  1  0
 19 22  2  0
 19 23  1  0
 20 21  2  0
 20 23  1  0
 20 34  1  0
 21 22  1  0
 21 35  1  0
 22 36  1  0
M  CHG  2  16   1  24  -1
M  END
> <Name>
ligand_78

> <IC50 (nM)>
18000

$$$$
ligand_125
  SciTegic07132122123D

 62 66  0  0  0  0            999 V2000
   69.2176   21.0859   54.6028 C   0  0
   70.1160   21.4890   55.5901 C   0  0
   70.6114   20.5510   56.4798 C   0  0
   70.1953   19.2222   56.3781 C   0  0
   69.2795   18.7919   55.3871 C   0  0
   68.7837   19.7437   54.4711 C   0  0
   68.8913   17.3828   55.4200 C   0  0
   69.8810   16.5145   55.7834 O   0  0
   69.3890   15.2337   55.7701 C   0  0
   68.0555   15.3029   55.3957 C   0  0
   67.7375   16.6692   55.1924 C   0  0
   70.2112   14.0988   55.9917 C   0  0
   71.1981   14.0793   56.8981 C   0  0
   71.4922   15.0259   57.9988 C   0  0
   72.6973   14.5211   58.5276 N   0  0
   73.1265   13.3130   57.9580 N   0  0
   72.2768   13.0720   56.9947 C   0  0
   70.8044   15.9618   58.3605 O   0  0
   73.5344   15.1740   59.4643 C   0  0
   74.7539   14.6097   59.8453 C   0  0
   75.6335   15.2992   60.6924 C   0  0
   75.3216   16.5694   61.2076 C   0  0
   74.0937   17.1201   60.8285 C   0  0
   73.2164   16.4316   59.9820 C   0  0
   72.3961   11.9733   56.0436 C   0  0
   67.8309   19.4420   53.3272 C   0  0
   67.9096   18.3142   52.7420 O   0  0
   67.0213   20.3784   52.9934 O   0  5
   72.6160   12.2645   54.6913 C   0  0
   72.6553   11.2290   53.7615 C   0  0
   72.4783    9.9154   54.1872 C   0  0
   72.2776    9.6340   55.5413 C   0  0
   72.2566   10.6591   56.4834 C   0  0
   76.3153   17.3383   62.0901 C   0  0
   75.6399   18.4230   62.9617 C   0  0
   77.3447   18.0275   61.1731 C   0  0
   77.0656   16.4011   63.0654 C   0  0
   68.8377   21.8238   53.8991 H   0  0
   70.4173   22.5299   55.6497 H   0  0
   71.3142   20.8375   57.2545 H   0  0
   70.5806   18.5033   57.1006 H   0  0
   67.3871   14.4662   55.2543 H   0  0
   66.7955   17.0900   54.8700 H   0  0
   70.0717   13.2803   55.2947 H   0  0
   75.0542   13.6358   59.4646 H   0  0
   76.5844   14.8246   60.9152 H   0  0
   73.7772   18.1156   61.1305 H   0  0
   72.2931   16.9400   59.7196 H   0  0
   72.7435   13.2918   54.3548 H   0  0
   72.7940   11.4588   52.7071 H   0  0
   72.4982    9.1026   53.4652 H   0  0
   72.1289    8.6069   55.8577 H   0  0
   72.1103   10.4312   57.5367 H   0  0
   74.8428   17.9958   63.5813 H   0  0
   75.2074   19.2284   62.3578 H   0  0
   76.3641   18.8969   63.6355 H   0  0
   77.8981   17.2992   60.5689 H   0  0
   78.0770   18.5967   61.7571 H   0  0
   76.8576   18.7243   60.4806 H   0  0
   77.7260   15.6993   62.5453 H   0  0
   76.3634   15.8171   63.6717 H   0  0
   77.7026   16.9721   63.7515 H   0  0
  1  2  2  0
  1  6  1  0
  1 38  1  0
  2  3  1  0
  2 39  1  0
  3  4  2  0
  3 40  1  0
  4  5  1  0
  4 41  1  0
  5  6  2  0
  5  7  1  0
  6 26  1  0
  7  8  1  0
  7 11  2  0
  8  9  1  0
  9 10  2  0
  9 12  1  0
 10 11  1  0
 10 42  1  0
 11 43  1  0
 12 13  2  0
 12 44  1  0
 13 14  1  0
 13 17  1  0
 14 15  1  0
 14 18  2  0
 15 16  1  0
 15 19  1  0
 16 17  2  0
 17 25  1  0
 19 20  2  0
 19 24  1  0
 20 21  1  0
 20 45  1  0
 21 22  2  0
 21 46  1  0
 22 23  1  0
 22 34  1  0
 23 24  2  0
 23 47  1  0
 24 48  1  0
 25 29  2  0
 25 33  1  0
 26 27  2  0
 26 28  1  0
 29 30  1  0
 29 49  1  0
 30 31  2  0
 30 50  1  0
 31 32  1  0
 31 51  1  0
 32 33  2  0
 32 52  1  0
 33 53  1  0
 34 35  1  0
 34 36  1  0
 34 37  1  0
 35 54  1  0
 35 55  1  0
 35 56  1  0
 36 57  1  0
 36 58  1  0
 36 59  1  0
 37 60  1  0
 37 61  1  0
 37 62  1  0
M  CHG  1  28  -1
M  END
> <Name>
ligand_125

> <IC50 (nM)>
8600

$$$$
ligand_110
  SciTegic07132122123D

 59 64  0  0  0  0            999 V2000
   68.9046   20.2391   48.7758 C   0  0
   68.3776   20.7227   49.9114 N   0  0
   68.0656   20.1794   47.6648 N   0  0
   68.2848   21.2768   46.7087 C   0  0
   67.4030   22.4869   47.0511 C   0  0
   66.0119   22.1172   47.0533 O   0  0
   65.7963   21.1441   48.0998 C   0  0
   66.6412   19.8724   47.8845 C   0  0
   71.1465   20.0919   49.7351 C   0  0
   70.2594   19.8667   48.6538 C   0  0
   70.7389   19.1276   47.4168 C   0  0
   72.2543   19.1334   47.2391 C   0  0
   72.9321   18.7273   48.5349 C   0  0
   72.6134   19.7385   49.6292 C   0  0
   69.2484   20.9569   50.9032 C   0  0
   70.6107   20.7185   50.8915 C   0  0
   68.6897   21.6227   52.3595 S   0  0
   70.2698   21.6876   53.0217 C   0  0
   71.2066   21.1914   52.1162 C   0  0
   72.5354   21.1587   52.3962 N   0  0
   72.8700   21.6500   53.5884 C   0  0
   72.0435   22.1240   54.5218 N   0  0
   70.7228   22.1219   54.2647 C   0  0
   69.6444   22.6127   55.5787 S   0  0
   68.9553   20.9892   56.0503 C   0  0
   70.0019   19.8862   56.0252 C   0  0
   69.7967   18.9270   55.0539 N   0  0
   70.9600   19.8577   56.7923 O   0  0
   70.7362   17.8451   54.8485 C   0  0
   70.3491   16.6915   55.6966 C   0  0
   69.9638   15.5504   55.0545 O   0  0
   69.6771   14.6329   56.0147 C   0  0
   69.8676   15.1674   57.2673 C   0  0
   70.3052   16.4972   57.0622 C   0  0
   68.0053   20.9072   45.7143 H   0  0
   69.3331   21.5922   46.6514 H   0  0
   67.5316   23.2609   46.2877 H   0  0
   67.6676   22.9280   48.0193 H   0  0
   64.7332   20.8828   48.0873 H   0  0
   66.0056   21.6134   49.0675 H   0  0
   66.2795   19.3745   46.9761 H   0  0
   66.5006   19.1635   48.7092 H   0  0
   70.3917   18.0894   47.4986 H   0  0
   70.3039   19.5412   46.5029 H   0  0
   72.5935   20.1330   46.9392 H   0  0
   72.5331   18.4434   46.4347 H   0  0
   72.5897   17.7288   48.8349 H   0  0
   74.0169   18.6662   48.3934 H   0  0
   73.1700   20.6651   49.4408 H   0  0
   72.9671   19.3258   50.5804 H   0  0
   73.9273   21.6601   53.8286 H   0  0
   68.5548   21.0569   57.0667 H   0  0
   68.1199   20.7489   55.3863 H   0  0
   68.9482   18.9166   54.5047 H   0  0
   70.7045   17.5836   53.7860 H   0  0
   71.7512   18.1763   55.0910 H   0  0
   69.3611   13.6634   55.6553 H   0  0
   69.7175   14.6599   58.2100 H   0  0
   70.5687   17.2340   57.8096 H   0  0
  1  2  2  0
  1  3  1  0
  1 10  1  0
  2 15  1  0
  3  4  1  0
  3  8  1  0
  4  5  1  0
  4 35  1  0
  4 36  1  0
  5  6  1  0
  5 37  1  0
  5 38  1  0
  6  7  1  0
  7  8  1  0
  7 39  1  0
  7 40  1  0
  8 41  1  0
  8 42  1  0
  9 10  2  0
  9 14  1  0
  9 16  1  0
 10 11  1  0
 11 12  1  0
 11 43  1  0
 11 44  1  0
 12 13  1  0
 12 45  1  0
 12 46  1  0
 13 14  1  0
 13 47  1  0
 13 48  1  0
 14 49  1  0
 14 50  1  0
 15 16  2  0
 15 17  1  0
 16 19  1  0
 17 18  1  0
 18 19  2  0
 18 23  1  0
 19 20  1  0
 20 21  2  0
 21 22  1  0
 21 51  1  0
 22 23  2  0
 23 24  1  0
 24 25  1  0
 25 26  1  0
 25 52  1  0
 25 53  1  0
 26 27  1  0
 26 28  2  0
 27 29  1  0
 27 54  1  0
 29 30  1  0
 29 55  1  0
 29 56  1  0
 30 31  1  0
 30 34  2  0
 31 32  1  0
 32 33  2  0
 32 57  1  0
 33 34  1  0
 33 58  1  0
 34 59  1  0
M  END
> <Name>
ligand_110

> <IC50 (nM)>
90720

$$$$
ligand_39
  SciTegic07132122123D

 47 50  0  0  0  0            999 V2000
   73.1572   23.3219   54.1950 C   0  0
   73.6821   24.5873   53.9085 C   0  0
   74.9402   24.7178   53.3170 C   0  0
   75.6990   23.5829   53.0031 C   0  0
   75.1780   22.3188   53.3025 C   0  0
   73.9178   22.1910   53.8952 C   0  0
   71.8731   23.2813   54.7707 N   0  0
   71.1363   22.1531   55.1181 C   0  0
   71.5054   20.9922   54.9768 O   0  0
   69.7738   22.5493   55.6766 C   0  0
   68.8992   21.1937   56.4834 S   0  0
   68.5866   20.1327   55.0947 C   0  0
   67.8039   18.4762   53.1122 C   0  0
   68.2692   19.7569   52.8683 C   0  0
   67.7668   18.0945   54.4240 C   0  0
   68.1529   18.9019   55.4188 N   0  0
   68.6372   20.6133   53.8460 N   0  0
   68.3498   20.2485   51.5040 C   0  0
   67.8527   19.8081   50.2990 C   0  0
   68.3978   20.6935   49.3352 C   0  0
   69.1005   21.3630   51.2865 O   0  0
   69.1447   21.6364   49.9289 N   0  0
   68.2818   20.5978   47.8837 C   0  0
   67.0369   20.2070   45.8311 C   0  0
   67.0613   20.3890   47.2171 C   0  0
   69.4664   20.6497   47.1259 C   0  0
   69.4419   20.4694   45.7438 C   0  0
   68.2269   20.2402   45.1078 C   0  0
   77.0389   23.7123   52.3288 C   0  0
   77.4637   25.0037   52.2279 F   0  0
   78.0378   23.0451   52.9703 F   0  0
   77.0259   23.2322   51.0508 F   0  0
   65.5332   20.3590   48.0312 Cl  0  0
   68.1912   19.9856   43.4075 Cl  0  0
   73.1189   25.4901   54.1329 H   0  0
   75.3270   25.7142   53.1026 H   0  0
   75.7479   21.4197   53.0717 H   0  0
   73.5599   21.1879   54.1053 H   0  0
   71.4428   24.1809   54.9477 H   0  0
   69.9245   23.3291   56.4316 H   0  0
   69.1666   22.9839   54.8755 H   0  0
   67.4783   17.7965   52.3348 H   0  0
   67.4204   17.1111   54.7264 H   0  0
   67.2228   18.9454   50.1236 H   0  0
   66.0933   20.0336   45.3217 H   0  0
   70.4252   20.8120   47.6190 H   0  0
   70.3683   20.4924   45.1759 H   0  0
  1  2  2  0
  1  6  1  0
  1  7  1  0
  2  3  1  0
  2 35  1  0
  3  4  2  0
  3 36  1  0
  4  5  1  0
  4 29  1  0
  5  6  2  0
  5 37  1  0
  6 38  1  0
  7  8  1  0
  7 39  1  0
  8  9  2  0
  8 10  1  0
 10 11  1  0
 10 40  1  0
 10 41  1  0
 11 12  1  0
 12 16  1  0
 12 17  2  0
 13 14  2  0
 13 15  1  0
 13 42  1  0
 14 17  1  0
 14 18  1  0
 15 16  2  0
 15 43  1  0
 18 19  2  0
 18 21  1  0
 19 20  1  0
 19 44  1  0
 20 22  2  0
 20 23  1  0
 21 22  1  0
 23 25  2  0
 23 26  1  0
 24 25  1  0
 24 28  2  0
 24 45  1  0
 25 33  1  0
 26 27  2  0
 26 46  1  0
 27 28  1  0
 27 47  1  0
 28 34  1  0
 29 30  1  0
 29 31  1  0
 29 32  1  0
M  END
> <Name>
ligand_39

> <IC50 (nM)>
15000

$$$$
ligand_86
  SciTegic07132122123D

 32 34  0  0  0  0            999 V2000
   71.8369   20.9327   53.7923 C   0  0
   73.0441   21.6375   53.8859 C   0  0
   73.0946   22.9476   54.3785 C   0  0
   71.9273   23.6008   54.7982 C   0  0
   70.6882   21.6089   54.2114 C   0  0
   69.3579   21.2855   54.2674 N   0  0
   70.7076   22.9085   54.7108 C   0  0
   69.4342   23.2832   55.0614 N   0  0
   68.6197   22.2606   54.8230 N   0  0
   68.7870   20.0297   54.0894 O   0  0
   68.3905   19.8481   52.8081 C   0  0
   68.6568   20.5691   51.8589 O   0  0
   67.5705   18.6060   52.6753 C   0  0
   67.1274   18.2368   51.3998 C   0  0
   67.2087   17.8078   53.7646 C   0  0
   66.4163   16.6635   53.5697 C   0  0
   65.9625   16.2838   52.2976 C   0  0
   66.3359   17.0913   51.2185 C   0  0
   65.1787   15.1517   52.1706 N   0  0
   64.6338   14.6815   50.9195 C   0  0
   71.7988   19.9217   53.4008 H   0  0
   73.9636   21.1529   53.5619 H   0  0
   74.0497   23.4671   54.4367 H   0  0
   71.9611   24.6143   55.1857 H   0  0
   67.3871   18.8407   50.5316 H   0  0
   67.5195   18.0568   54.7760 H   0  0
   66.1445   16.0640   54.4369 H   0  0
   66.0125   16.8481   50.2094 H   0  0
   64.9563   14.6276   53.0079 H   0  0
   64.0479   13.7734   51.0937 H   0  0
   65.4295   14.4323   50.2101 H   0  0
   63.9675   15.4266   50.4731 H   0  0
  1  2  1  0
  1  5  2  0
  1 21  1  0
  2  3  2  0
  2 22  1  0
  3  4  1  0
  3 23  1  0
  4  7  2  0
  4 24  1  0
  5  6  1  0
  5  7  1  0
  6  9  1  0
  6 10  1  0
  7  8  1  0
  8  9  2  0
 10 11  1  0
 11 12  2  0
 11 13  1  0
 13 14  2  0
 13 15  1  0
 14 18  1  0
 14 25  1  0
 15 16  2  0
 15 26  1  0
 16 17  1  0
 16 27  1  0
 17 18  2  0
 17 19  1  0
 18 28  1  0
 19 20  1  0
 19 29  1  0
 20 30  1  0
 20 31  1  0
 20 32  1  0
M  END
> <Name>
ligand_86

$$$$
ligand_111
  SciTegic07132122123D

 60 63  0  0  0  0            999 V2000
   72.9835   22.5707   52.5607 C   0  0
   72.0699   22.6473   51.3706 C   0  0
   70.8422   22.5825   51.9179 C   0  0
   70.8077   22.5325   53.4074 C   0  0  2  0  0  0
   72.2159   22.7082   53.6939 N   0  0
   74.2090   22.5875   52.5697 O   0  0
   72.5378   22.8717   50.2274 O   0  5
   69.5576   22.7878   51.2059 C   0  0
   69.2810   22.1426   49.9391 C   0  0
   68.7279   23.5155   51.7653 O   0  0
   69.7370   20.5219   49.6138 S   0  0
   68.9651   20.6176   48.0825 C   0  0
   68.3775   21.7633   47.8161 N   0  0
   68.5510   22.6431   48.8735 C   0  0
   70.2580   21.2178   53.9493 C   0  0
   68.8826   21.0728   54.2132 C   0  0
   68.3523   19.8574   54.6744 C   0  0
   69.1893   18.7609   54.8866 C   0  0
   70.5584   18.8989   54.6238 C   0  0
   71.0893   20.1039   54.1487 C   0  0
   72.7378   23.1935   54.9520 C   0  0
   72.9989   24.7090   54.9126 C   0  0
   74.4505   25.1324   54.6449 C   0  0
   74.9484   24.9307   53.2439 N   0  3
   74.2400   25.7462   52.1639 C   0  0
   74.8831   25.5044   50.7890 C   0  0
   76.2932   25.7974   50.8286 O   0  0
   76.9403   24.8757   51.7163 C   0  0
   76.4554   25.0974   53.1495 C   0  0
   68.9683   19.4451   47.1629 C   0  0
   67.9555   24.0003   48.7657 C   0  0
   71.4689   17.7794   54.8555 N   0  3
   72.6663   18.0374   55.0471 O   0  0
   70.9821   16.6414   54.8724 O   0  5
   70.2733   23.3872   53.8389 H   0  0
   68.2041   21.9094   54.0408 H   0  0
   67.2817   19.7660   54.8583 H   0  0
   68.7652   17.8217   55.2450 H   0  0
   72.1524   20.1698   53.9201 H   0  0
   73.6627   22.6525   55.1800 H   0  0
   72.0072   22.9555   55.7327 H   0  0
   72.7603   25.0903   55.9148 H   0  0
   72.3074   25.2150   54.2301 H   0  0
   75.1210   24.5737   55.3080 H   0  0
   74.5706   26.1995   54.8653 H   0  0
   73.1839   25.4690   52.1613 H   0  0
   74.3494   26.7954   52.4586 H   0  0
   74.7469   24.4768   50.4437 H   0  0
   74.4290   26.1707   50.0491 H   0  0
   76.7658   23.8462   51.3822 H   0  0
   78.0168   25.0652   51.6601 H   0  0
   76.9113   24.3735   53.8320 H   0  0
   76.6748   26.1183   53.4810 H   0  0
   68.4419   19.6865   46.2339 H   0  0
   68.4649   18.5894   47.6238 H   0  0
   69.9921   19.1560   46.9054 H   0  0
   68.6894   24.7691   49.0270 H   0  0
   67.0951   24.0934   49.4353 H   0  0
   67.6137   24.1963   47.7443 H   0  0
   74.7738   23.9375   52.9685 H   0  0
  1  2  1  0
  1  5  1  0
  1  6  2  0
  2  3  2  0
  2  7  1  0
  3  4  1  0
  3  8  1  0
  4  5  1  0
  4 15  1  0
  4 35  1  0
  5 21  1  0
  8  9  1  0
  8 10  2  0
  9 11  1  0
  9 14  2  0
 11 12  1  0
 12 13  2  0
 12 30  1  0
 13 14  1  0
 14 31  1  0
 15 16  1  0
 15 20  2  0
 16 17  2  0
 16 36  1  0
 17 18  1  0
 17 37  1  0
 18 19  2  0
 18 38  1  0
 19 20  1  0
 19 32  1  0
 20 39  1  0
 21 22  1  0
 21 40  1  0
 21 41  1  0
 22 23  1  0
 22 42  1  0
 22 43  1  0
 23 24  1  0
 23 44  1  0
 23 45  1  0
 24 25  1  0
 24 29  1  0
 24 60  1  0
 25 26  1  0
 25 46  1  0
 25 47  1  0
 26 27  1  0
 26 48  1  0
 26 49  1  0
 27 28  1  0
 28 29  1  0
 28 50  1  0
 28 51  1  0
 29 52  1  0
 29 53  1  0
 30 54  1  0
 30 55  1  0
 30 56  1  0
 31 57  1  0
 31 58  1  0
 31 59  1  0
 32 33  2  0
 32 34  1  0
M  CHG  4   7  -1  24   1  32   1  34  -1
M  END
> <Name>
ligand_111

> <IC50 (nM)>
101380

$$$$
ligand_35
  SciTegic07132122123D

 51 54  0  0  0  0            999 V2000
   71.1648   11.4997   56.2969 C   0  0
   71.5693   10.1629   56.1742 C   0  0
   73.1588   10.7974   54.4742 C   0  0
   72.7563   12.1311   54.6003 C   0  0
   71.7540   12.4932   55.5111 C   0  0
   71.3932   13.8533   55.5510 N   0  0
   70.4205   14.4622   56.3270 C   0  0
   69.7434   13.9112   57.1919 O   0  0
   70.1844   15.9181   55.9728 C   0  0
   71.6599   16.9151   56.3092 S   0  0
   70.9482   18.4760   55.8878 C   0  0
   70.1637   20.5253   56.5368 C   0  0
   69.9929   19.8296   54.3292 C   0  0
   69.7472   20.8120   55.2627 C   0  0
   70.7712   19.3731   56.8684 N   0  0
   70.5937   18.6589   54.6104 N   0  0
   69.6488   20.0363   52.9320 C   0  0
   68.5274   19.4651   52.3604 C   0  0
   70.4293   20.7979   51.9801 C   0  0
   69.7767   20.8854   50.7533 C   0  0
   68.3457   19.9385   50.7322 S   0  0
   67.3508   18.3985   53.1344 S   0  0
   67.8797   16.8096   52.4494 C   0  0
   71.7603   21.4063   52.3152 C   0  0
   70.1400   21.6416   49.5773 C   0  0
   70.3566   22.1605   47.4213 C   0  0
   70.8727   23.3120   47.9780 C   0  0
   70.8029   23.2292   49.6822 S   0  0
   69.9342   21.2168   48.3444 N   0  0
   70.2131   21.8594   45.9735 C   0  0
   72.5625    9.8163   55.2619 C   0  0
   73.0516    8.1721   55.1039 Cl  0  0
   70.3844   11.7274   57.0170 H   0  0
   71.0999    9.4003   56.7918 H   0  0
   73.9309   10.5324   53.7572 H   0  0
   73.2285   12.8793   53.9668 H   0  0
   71.9150   14.4736   54.9411 H   0  0
   69.9156   15.9757   54.9131 H   0  0
   69.3419   16.2891   56.5663 H   0  0
   70.0185   21.2231   57.3562 H   0  0
   69.2622   21.7447   55.0133 H   0  0
   67.3013   16.0077   52.9161 H   0  0
   68.9401   16.6361   52.6514 H   0  0
   67.7074   16.7783   51.3703 H   0  0
   72.4430   21.3614   51.4609 H   0  0
   72.2532   20.8706   53.1330 H   0  0
   71.6351   22.4488   52.6234 H   0  0
   71.2661   24.1841   47.4789 H   0  0
   70.7599   22.5823   45.3600 H   0  0
   69.1578   21.8908   45.6857 H   0  0
   70.6037   20.8615   45.7518 H   0  0
  1  2  2  0
  1  5  1  0
  1 33  1  0
  2 31  1  0
  2 34  1  0
  3  4  1  0
  3 31  2  0
  3 35  1  0
  4  5  2  0
  4 36  1  0
  5  6  1  0
  6  7  1  0
  6 37  1  0
  7  8  2  0
  7  9  1  0
  9 10  1  0
  9 38  1  0
  9 39  1  0
 10 11  1  0
 11 15  2  0
 11 16  1  0
 12 14  2  0
 12 15  1  0
 12 40  1  0
 13 14  1  0
 13 16  2  0
 13 17  1  0
 14 41  1  0
 17 18  2  0
 17 19  1  0
 18 21  1  0
 18 22  1  0
 19 20  2  0
 19 24  1  0
 20 21  1  0
 20 25  1  0
 22 23  1  0
 23 42  1  0
 23 43  1  0
 23 44  1  0
 24 45  1  0
 24 46  1  0
 24 47  1  0
 25 28  1  0
 25 29  2  0
 26 27  2  0
 26 29  1  0
 26 30  1  0
 27 28  1  0
 27 48  1  0
 30 49  1  0
 30 50  1  0
 30 51  1  0
 31 32  1  0
M  END
> <Name>
ligand_35

> <IC50 (nM)>
11000

$$$$
ligand_80
  SciTegic07132122123D

 36 38  0  0  0  0            999 V2000
   68.4863   15.8742   54.6732 C   0  0
   69.3987   14.6799   54.6199 C   0  0
   70.5052   12.4843   55.0260 C   0  0
   71.1124   13.2234   54.0232 C   0  0
   70.4813   14.4796   53.7902 C   0  0
   69.1649   13.3512   55.6680 S   0  0
   70.9118   11.1724   55.5000 C   0  0
   72.0294   10.4583   55.0913 C   0  0
   72.1599    9.1995   55.7415 C   0  0
   71.1413    8.9806   56.6384 C   0  0
   70.0325   10.2735   56.6774 S   0  0
   68.7383   18.3708   54.9678 C   0  0
   68.5698   20.6024   54.8024 C   0  0
   69.4643   19.5497   55.1187 C   0  0
   69.1539   17.0811   55.1275 N   0  0
   67.4643   18.7933   54.6370 N   0  0
   67.3576   20.1319   54.4905 N   0  0
   66.2532   18.0189   54.4990 C   0  0
   68.8094   22.0691   54.7772 C   0  0
   70.8464   19.6620   55.4959 N   0  3
   71.3238   20.8042   55.5620 O   0  0
   71.4665   18.6120   55.7281 O   0  5
   67.6318   15.6647   55.3257 H   0  0
   68.0990   16.0242   53.6581 H   0  0
   71.9801   12.8872   53.4694 H   0  0
   70.8097   15.2028   53.0524 H   0  0
   72.7307   10.8325   54.3562 H   0  0
   72.9564    8.4819   55.5661 H   0  0
   70.9955    8.1103   57.2667 H   0  0
   70.1017   16.9147   55.4833 H   0  0
   65.3929   18.6930   54.4495 H   0  0
   66.1432   17.3745   55.3732 H   0  0
   66.3113   17.4418   53.5744 H   0  0
   67.9052   22.6178   54.4921 H   0  0
   69.5909   22.3190   54.0527 H   0  0
   69.1155   22.4259   55.7657 H   0  0
  1  2  1  0
  1 15  1  0
  1 23  1  0
  1 24  1  0
  2  5  2  0
  2  6  1  0
  3  4  2  0
  3  6  1  0
  3  7  1  0
  4  5  1  0
  4 25  1  0
  5 26  1  0
  7  8  2  0
  7 11  1  0
  8  9  1  0
  8 27  1  0
  9 10  2  0
  9 28  1  0
 10 11  1  0
 10 29  1  0
 12 14  2  0
 12 15  1  0
 12 16  1  0
 13 14  1  0
 13 17  2  0
 13 19  1  0
 14 20  1  0
 15 30  1  0
 16 17  1  0
 16 18  1  0
 18 31  1  0
 18 32  1  0
 18 33  1  0
 19 34  1  0
 19 35  1  0
 19 36  1  0
 20 21  2  0
 20 22  1  0
M  CHG  2  20   1  22  -1
M  END
> <Name>
ligand_80

> <IC50 (nM)>
20000

$$$$
ligand_51
  SciTegic07132122123D

 60 62  0  0  0  0            999 V2000
   69.2543   14.5665   55.5026 C   0  0
   68.5745   15.2594   54.4973 C   0  0
   68.5534   16.6686   54.4617 C   0  0
   69.2463   17.4054   55.4461 C   0  0
   69.9276   16.7001   56.4443 C   0  0
   69.9352   15.3011   56.4720 C   0  0
   69.7962   19.7158   56.2900 C   0  0
   69.2266   18.8209   55.3979 N   0  0
   70.4721   19.4261   57.2785 O   0  0
   69.4595   21.1708   55.9974 C   0  0
   70.5937   21.8865   54.7856 S   0  0
   69.9352   21.4130   53.2338 C   0  0
   68.9298   20.7360   50.8623 C   0  0
   70.1685   21.2465   50.9766 C   0  0
   68.1354   20.5969   52.1148 C   0  0
   66.9828   20.1726   52.0392 O   0  0
   68.7140   20.9082   53.2734 N   0  5
   70.6805   21.6084   52.1980 N   0  0
   68.3595   20.3179   49.6304 C   0  0
   67.9556   19.9781   48.5934 N   0  0
   71.1122   21.4765   49.7986 C   0  0
   73.3508   20.8886   48.7634 C   0  0
   73.6654   22.3715   48.5887 C   0  0
   72.3948   23.2064   48.4592 C   0  0
   71.4436   22.9716   49.6315 C   0  0
   72.4021   20.6468   49.9370 C   0  0
   67.7908   17.3314   53.3468 C   0  0
   69.2774   13.0601   55.5209 C   0  0
   70.5085   12.5038   54.8021 C   0  0
   70.5148   10.9753   54.8169 C   0  0
   71.7416   10.4174   54.1135 C   0  0
   68.0495   14.6989   53.7258 H   0  0
   70.4827   17.2123   57.2224 H   0  0
   70.4881   14.7969   57.2588 H   0  0
   68.7688   19.2561   54.5937 H   0  0
   69.5932   21.7269   56.9326 H   0  0
   68.4043   21.2860   55.7324 H   0  0
   70.6309   21.1558   48.8662 H   0  0
   74.2810   20.3312   48.9212 H   0  0
   72.8984   20.5000   47.8426 H   0  0
   74.2915   22.5134   47.7006 H   0  0
   74.2468   22.7245   49.4493 H   0  0
   72.6565   24.2692   48.4047 H   0  0
   71.8861   22.9549   47.5204 H   0  0
   70.5226   23.5447   49.4690 H   0  0
   71.9056   23.3670   50.5454 H   0  0
   72.1579   19.5787   49.9896 H   0  0
   72.9233   20.8990   50.8695 H   0  0
   67.2076   16.6059   52.7692 H   0  0
   68.4889   17.8165   52.6595 H   0  0
   67.0794   18.0574   53.7512 H   0  0
   69.2554   12.7104   56.5608 H   0  0
   68.3621   12.6743   55.0541 H   0  0
   70.5274   12.8609   53.7644 H   0  0
   71.4217   12.8789   55.2812 H   0  0
   70.4973   10.6124   55.8511 H   0  0
   69.6129   10.5946   54.3238 H   0  0
   71.7251    9.3232   54.1320 H   0  0
   72.6611   10.7516   54.6048 H   0  0
   71.7743   10.7392   53.0677 H   0  0
  1  2  2  0
  1  6  1  0
  1 28  1  0
  2  3  1  0
  2 32  1  0
  3  4  2  0
  3 27  1  0
  4  5  1  0
  4  8  1  0
  5  6  2  0
  5 33  1  0
  6 34  1  0
  7  8  1  0
  7  9  2  0
  7 10  1  0
  8 35  1  0
 10 11  1  0
 10 36  1  0
 10 37  1  0
 11 12  1  0
 12 17  1  0
 12 18  2  0
 13 14  2  0
 13 15  1  0
 13 19  1  0
 14 18  1  0
 14 21  1  0
 15 16  2  0
 15 17  1  0
 19 20  3  0
 21 25  1  0
 21 26  1  0
 21 38  1  0
 22 23  1  0
 22 26  1  0
 22 39  1  0
 22 40  1  0
 23 24  1  0
 23 41  1  0
 23 42  1  0
 24 25  1  0
 24 43  1  0
 24 44  1  0
 25 45  1  0
 25 46  1  0
 26 47  1  0
 26 48  1  0
 27 49  1  0
 27 50  1  0
 27 51  1  0
 28 29  1  0
 28 52  1  0
 28 53  1  0
 29 30  1  0
 29 54  1  0
 29 55  1  0
 30 31  1  0
 30 56  1  0
 30 57  1  0
 31 58  1  0
 31 59  1  0
 31 60  1  0
M  CHG  1  17  -1
M  END
> <Name>
ligand_51

> <IC50 (nM)>
200000

$$$$
ligand_73
  SciTegic07132122123D

 32 34  0  0  0  0            999 V2000
   68.5622   19.1667   51.8843 C   0  0
   69.4267   19.1577   50.8005 C   0  0
   68.7216   19.6923   49.6942 C   0  0
   67.4729   20.0263   50.1620 C   0  0
   67.3507   19.7001   51.4796 O   0  0
   66.3846   20.6736   49.5094 C   0  0
   65.5336   21.2724   48.9012 C   0  0
   64.5749   22.0408   48.1471 C   0  0
   64.2869   23.3592   48.5173 C   0  0
   63.3761   24.1219   47.7782 C   0  0
   62.7449   23.5724   46.6613 C   0  0
   63.0260   22.2592   46.2832 C   0  0
   63.9389   21.4966   47.0242 C   0  0
   68.8215   18.8121   53.2739 C   0  0
   69.9160   18.9735   53.8101 O   0  0
   67.4066   18.2817   54.1444 S   0  0
   67.8757   16.6544   54.5787 C   0  0
   68.8565   14.7433   54.7037 C   0  0
   68.9163   15.9603   54.0984 N   0  0
   67.1620   15.9119   55.4467 N   0  5
   67.7665   14.6873   55.5136 N   0  0
   69.8323   13.6046   54.5032 C   0  0
   69.3647   12.3810   54.9071 F   0  0
   70.1848   13.4330   53.1877 F   0  0
   71.0132   13.7809   55.1766 F   0  0
   70.4512   18.8084   50.8320 H   0  0
   69.0905   19.8442   48.6902 H   0  0
   64.7690   23.7898   49.3930 H   0  0
   63.1637   25.1449   48.0778 H   0  0
   62.0350   24.1662   46.0854 H   0  0
   62.5352   21.8304   45.4122 H   0  0
   64.1490   20.4695   46.7321 H   0  0
  1  2  2  0
  1  5  1  0
  1 14  1  0
  2  3  1  0
  2 26  1  0
  3  4  2  0
  3 27  1  0
  4  5  1  0
  4  6  1  0
  6  7  3  0
  7  8  1  0
  8  9  1  0
  8 13  2  0
  9 10  2  0
  9 28  1  0
 10 11  1  0
 10 29  1  0
 11 12  2  0
 11 30  1  0
 12 13  1  0
 12 31  1  0
 13 32  1  0
 14 15  2  0
 14 16  1  0
 16 17  1  0
 17 19  2  0
 17 20  1  0
 18 19  1  0
 18 21  2  0
 18 22  1  0
 20 21  1  0
 22 23  1  0
 22 24  1  0
 22 25  1  0
M  CHG  1  20  -1
M  END
> <Name>
ligand_73

> <IC50 (nM)>
3000

$$$$
ligand_67
  SciTegic07132122123D

 27 28  0  0  0  0            999 V2000
   72.0143   20.5607   55.5830 C   0  0
   73.1205   21.1395   54.9574 C   0  0
   72.9337   22.0575   53.9239 C   0  0
   71.6470   22.3975   53.5026 C   0  0
   70.5358   21.8155   54.1183 C   0  0
   70.7256   20.8878   55.1497 C   0  0
   69.3131   20.2145   55.9926 S   0  0
   68.2965   21.2549   55.9347 O   0  0
   69.7375   19.7126   57.2866 O   0  0
   68.6408   18.8359   55.1206 C   0  0
   67.2378   18.7072   55.0616 C   0  0
   67.4838   16.6650   53.8279 C   0  0
   66.6570   17.6208   54.4135 C   0  0
   68.8671   16.8070   53.8856 C   0  0
   66.9088   15.5011   53.1552 N   0  3
   67.6909   14.6831   52.6551 O   0  5
   65.6746   15.4054   53.1326 O   0  0
   74.2988   22.7902   53.1736 Cl  0  0
   69.4526   17.8892   54.5286 N   0  3
   70.7136   17.9705   54.5471 O   0  5
   72.1668   19.8460   56.3896 H   0  0
   74.1210   20.8688   55.2828 H   0  0
   71.5055   23.1223   52.7048 H   0  0
   69.5369   22.1061   53.8012 H   0  0
   66.5959   19.4504   55.5362 H   0  0
   65.5714   17.5331   54.3835 H   0  0
   69.5914   16.1233   53.4640 H   0  0
  1  2  2  0
  1  6  1  0
  1 21  1  0
  2  3  1  0
  2 22  1  0
  3  4  2  0
  3 18  1  0
  4  5  1  0
  4 23  1  0
  5  6  2  0
  5 24  1  0
  6  7  1  0
  7  8  2  0
  7  9  2  0
  7 10  1  0
 10 11  2  0
 10 19  1  0
 11 13  1  0
 11 25  1  0
 12 13  2  0
 12 14  1  0
 12 15  1  0
 13 26  1  0
 14 19  2  0
 14 27  1  0
 15 16  1  0
 15 17  2  0
 19 20  1  0
M  CHG  4  15   1  16  -1  19   1  20  -1
M  END
> <Name>
ligand_67

> <IC50 (nM)>
15000

$$$$
ligand_100
  SciTegic07132122123D

 36 37  0  0  0  0            999 V2000
   66.1621   14.6227   53.1197 C   0  0
   66.6746   15.8321   52.3839 C   0  0
   67.9204   16.4933   52.9076 C   0  0
   65.1518   13.7619   52.3460 C   0  0
   68.1272   17.9404   52.5901 C   0  0
   67.5694   18.5456   51.4481 C   0  0
   64.7330   14.2898   51.2603 O   0  0
   66.4094   14.3209   54.2861 O   0  0
   68.8127   15.9113   53.5186 O   0  0
   67.3259   20.5329   50.0228 N   0  0
   67.8184   19.8924   51.1446 C   0  0
   64.8233   12.6292   52.8254 O   0  5
   66.4663   19.9205   49.0293 C   0  0
   66.2358   20.8878   47.8854 C   0  0
   68.9438   18.6888   53.4433 C   0  0
   69.1895   20.0296   53.1663 C   0  0
   68.6316   20.6187   52.0281 C   0  0
   67.0698   20.8636   46.7550 C   0  0
   65.2013   21.8367   47.9442 C   0  0
   64.9768   22.7090   46.8776 C   0  0
   66.8444   21.7338   45.6883 C   0  0
   65.7879   22.6401   45.7477 C   0  0
   66.8987   15.5409   51.3511 H   0  0
   65.8533   16.5579   52.3877 H   0  0
   66.9574   17.9501   50.7776 H   0  0
   67.5569   21.5088   49.8835 H   0  0
   66.9198   19.0033   48.6336 H   0  0
   65.5023   19.6426   49.4726 H   0  0
   69.3887   18.2237   54.3221 H   0  0
   69.8213   20.6135   53.8299 H   0  0
   68.8471   21.6657   51.8284 H   0  0
   67.8892   20.1489   46.7036 H   0  0
   64.5591   21.8831   48.8218 H   0  0
   64.1734   23.4413   46.9203 H   0  0
   67.4865   21.7109   44.8096 H   0  0
   65.5999   23.3035   44.9092 H   0  0
  1  2  1  0
  1  4  1  0
  1  8  2  0
  2  3  1  0
  2 23  1  0
  2 24  1  0
  3  5  1  0
  3  9  2  0
  4  7  2  0
  4 12  1  0
  5  6  2  0
  5 15  1  0
  6 11  1  0
  6 25  1  0
 10 11  1  0
 10 13  1  0
 10 26  1  0
 11 17  2  0
 13 14  1  0
 13 27  1  0
 13 28  1  0
 14 18  2  0
 14 19  1  0
 15 16  2  0
 15 29  1  0
 16 17  1  0
 16 30  1  0
 17 31  1  0
 18 21  1  0
 18 32  1  0
 19 20  2  0
 19 33  1  0
 20 22  1  0
 20 34  1  0
 21 22  2  0
 21 35  1  0
 22 36  1  0
M  CHG  1  12  -1
M  END
> <Name>
ligand_100

> <IC50 (nM)>
5400

$$$$
ligand_75
  SciTegic07132122123D

 42 44  0  0  0  0            999 V2000
   70.5025   20.6996   55.3217 C   0  0
   71.7798   20.2904   54.9889 C   0  0
   72.1066   20.5790   53.6336 C   0  0
   71.0690   21.2060   52.9795 C   0  0
   69.7125   21.4457   53.9981 S   0  0
   69.5737   20.5830   56.8812 S   0  0
   69.3187   21.9985   57.1453 O   0  0
   70.5768   19.9756   57.7564 O   0  0
   68.2795   19.7209   56.5074 N   0  5
   68.4418   18.4345   56.1116 C   0  0
   69.0386   16.3541   55.6364 C   0  0
   69.4854   17.5485   56.2509 C   0  0
   67.4610   17.7414   55.4657 N   0  0
   67.7948   16.4758   55.1521 N   0  0
   69.8203   15.1214   55.5341 C   0  0
   69.4526   13.9236   54.9562 C   0  0
   71.1374   14.9314   56.0276 C   0  0
   71.4965   13.6328   55.7213 C   0  0
   70.4662   13.0170   55.0666 O   0  0
   68.2279   13.4585   54.2747 C   0  0
   72.7300   12.8002   55.9531 C   0  0
   72.3755   11.5820   56.8245 C   0  0
   73.8205   13.6155   56.6725 C   0  0
   73.2913   12.3178   54.6032 C   0  0
   72.4285   19.8033   55.7055 H   0  0
   73.0520   20.3380   53.1663 H   0  0
   71.0353   21.5386   51.9526 H   0  0
   70.4364   17.7253   56.7321 H   0  0
   66.5452   18.0858   55.2049 H   0  0
   71.7499   15.6558   56.5457 H   0  0
   68.3276   12.4193   53.9451 H   0  0
   68.0214   14.0714   53.3920 H   0  0
   67.3675   13.5150   54.9484 H   0  0
   71.6266   10.9439   56.3410 H   0  0
   71.9641   11.8924   57.7924 H   0  0
   73.2591   10.9636   57.0195 H   0  0
   74.1171   14.4938   56.0869 H   0  0
   74.7201   13.0120   56.8400 H   0  0
   73.4761   13.9712   57.6509 H   0  0
   73.5394   13.1637   53.9512 H   0  0
   72.5689   11.6922   54.0658 H   0  0
   74.2018   11.7237   54.7420 H   0  0
  1  2  2  0
  1  5  1  0
  1  6  1  0
  2  3  1  0
  2 25  1  0
  3  4  2  0
  3 26  1  0
  4  5  1  0
  4 27  1  0
  6  7  2  0
  6  8  2  0
  6  9  1  0
  9 10  1  0
 10 12  2  0
 10 13  1  0
 11 12  1  0
 11 14  2  0
 11 15  1  0
 12 28  1  0
 13 14  1  0
 13 29  1  0
 15 16  2  0
 15 17  1  0
 16 19  1  0
 16 20  1  0
 17 18  2  0
 17 30  1  0
 18 19  1  0
 18 21  1  0
 20 31  1  0
 20 32  1  0
 20 33  1  0
 21 22  1  0
 21 23  1  0
 21 24  1  0
 22 34  1  0
 22 35  1  0
 22 36  1  0
 23 37  1  0
 23 38  1  0
 23 39  1  0
 24 40  1  0
 24 41  1  0
 24 42  1  0
M  CHG  1   9  -1
M  END
> <Name>
ligand_75

> <IC50 (nM)>
10000

$$$$
ligand_70
  SciTegic07132122123D

 32 33  0  0  0  0            999 V2000
   67.0312   16.6697   52.5422 C   0  0
   67.8935   18.9492   52.7753 C   0  0
   67.1737   17.9710   52.0589 C   0  0
   67.6012   16.3188   53.7603 C   0  0
   68.3061   17.2721   54.4956 C   0  0
   68.4601   18.5848   54.0084 C   0  0
   69.2981   19.7676   55.0713 S   0  0
   69.6724   19.0231   56.2699 O   0  0
   68.4061   20.9018   55.2194 O   0  0
   70.8553   20.2488   54.3814 C   0  0
   71.3318   21.5554   54.4783 C   0  0
   71.6242   19.2744   53.7243 C   0  0
   72.8586   19.6141   53.1663 C   0  0
   73.3350   20.9203   53.2666 C   0  0
   72.5773   21.8894   53.9257 C   0  0
   70.6305   22.6240   55.2071 C   0  0
   70.8852   22.7846   56.3990 O   0  0
   69.7382   23.5454   54.4213 C   0  0
   68.0343   20.3149   52.1686 C   0  0
   69.1622   20.8741   52.2993 O   0  0
   67.0424   20.7645   51.5199 O   0  5
   66.4685   15.9407   51.9668 H   0  0
   66.7197   18.2470   51.1066 H   0  0
   67.4839   15.3110   54.1475 H   0  0
   68.7190   16.9861   55.4603 H   0  0
   71.2645   18.2534   53.6314 H   0  0
   73.4417   18.8604   52.6441 H   0  0
   74.2929   21.1858   52.8284 H   0  0
   72.9567   22.9044   54.0117 H   0  0
   70.1799   24.5457   54.4148 H   0  0
   68.7496   23.5815   54.8853 H   0  0
   69.6297   23.2132   53.3869 H   0  0
  1  3  2  0
  1  4  1  0
  1 22  1  0
  2  3  1  0
  2  6  2  0
  2 19  1  0
  3 23  1  0
  4  5  2  0
  4 24  1  0
  5  6  1  0
  5 25  1  0
  6  7  1  0
  7  8  2  0
  7  9  2  0
  7 10  1  0
 10 11  2  0
 10 12  1  0
 11 15  1  0
 11 16  1  0
 12 13  2  0
 12 26  1  0
 13 14  1  0
 13 27  1  0
 14 15  2  0
 14 28  1  0
 15 29  1  0
 16 17  2  0
 16 18  1  0
 18 30  1  0
 18 31  1  0
 18 32  1  0
 19 20  2  0
 19 21  1  0
M  CHG  1  21  -1
M  END
> <Name>
ligand_70

> <IC50 (nM)>
16000

$$$$
ligand_58
  SciTegic07132122123D

 57 59  0  0  0  0            999 V2000
   68.7858   20.0418   50.5865 C   0  0
   70.0975   19.9824   50.1148 C   0  0
   70.4595   20.6074   48.9115 C   0  0
   69.5205   21.3093   48.1383 C   0  0
   68.2040   21.3656   48.6313 C   0  0
   67.8443   20.7439   49.8364 C   0  0
   69.8788   21.9930   46.8088 C   0  0
   71.3654   21.8467   46.4125 C   0  0
   69.0397   21.3776   45.6682 C   0  0
   69.5785   23.5044   46.9038 C   0  0
   68.4931   19.3560   51.7813 N   0  0
   67.2685   19.2485   52.4205 C   0  0
   66.2382   19.8526   52.1219 O   0  0
   67.2949   18.3137   53.6198 C   0  0
   69.2373   16.4669   54.1075 C   0  0
   71.3535   16.2437   55.7014 C   0  0
   70.3727   15.3170   55.7262 C   0  0
   71.2136   17.3694   54.7125 C   0  0
   67.8247   16.6529   53.1012 S   0  0
   69.2558   15.4854   54.9378 N   0  0
   70.1677   17.3755   53.8834 N   0  5
   72.0812   18.2421   54.6892 O   0  0
   70.2645   14.0386   56.5938 C   0  0
   72.4778   12.8267   56.1631 C   0  0
   71.7730   11.7642   55.3238 C   0  0
   70.4540   12.2705   54.7474 C   0  0
   69.5630   12.8737   55.8351 C   0  0
   71.5381   13.4230   57.2124 C   0  0
   72.4880   16.2633   56.5633 C   0  0
   73.3918   16.2438   57.2984 N   0  0
   70.8579   19.4419   50.6763 H   0  0
   71.4975   20.5184   48.6032 H   0  0
   67.4269   21.8934   48.0797 H   0  0
   66.8128   20.8146   50.1616 H   0  0
   71.5723   22.3526   45.4619 H   0  0
   71.6476   20.7952   46.2851 H   0  0
   72.0291   22.2898   47.1641 H   0  0
   69.2995   21.8238   44.7011 H   0  0
   67.9649   21.5323   45.8141 H   0  0
   69.2090   20.2966   45.5930 H   0  0
   69.8649   24.0234   45.9816 H   0  0
   70.1312   23.9650   47.7311 H   0  0
   68.5142   23.7063   47.0669 H   0  0
   69.2520   18.8192   52.2106 H   0  0
   66.2792   18.2330   54.0209 H   0  0
   67.9253   18.7489   54.4014 H   0  0
   69.6038   14.3122   57.4291 H   0  0
   72.8655   13.6099   55.5032 H   0  0
   73.3442   12.3778   56.6622 H   0  0
   71.5777   10.8839   55.9489 H   0  0
   72.4314   11.4354   54.5119 H   0  0
   70.6547   13.0158   53.9690 H   0  0
   69.9276   11.4408   54.2621 H   0  0
   69.3038   12.0862   56.5562 H   0  0
   68.6084   13.1881   55.3982 H   0  0
   71.2346   12.6142   57.8929 H   0  0
   72.0615   14.1292   57.8577 H   0  0
  1  2  2  0
  1  6  1  0
  1 11  1  0
  2  3  1  0
  2 31  1  0
  3  4  2  0
  3 32  1  0
  4  5  1  0
  4  7  1  0
  5  6  2  0
  5 33  1  0
  6 34  1  0
  7  8  1  0
  7  9  1  0
  7 10  1  0
  8 35  1  0
  8 36  1  0
  8 37  1  0
  9 38  1  0
  9 39  1  0
  9 40  1  0
 10 41  1  0
 10 42  1  0
 10 43  1  0
 11 12  1  0
 11 44  1  0
 12 13  2  0
 12 14  1  0
 14 19  1  0
 14 45  1  0
 14 46  1  0
 15 19  1  0
 15 20  2  0
 15 21  1  0
 16 17  2  0
 16 18  1  0
 16 29  1  0
 17 20  1  0
 17 23  1  0
 18 21  1  0
 18 22  2  0
 23 27  1  0
 23 28  1  0
 23 47  1  0
 24 25  1  0
 24 28  1  0
 24 48  1  0
 24 49  1  0
 25 26  1  0
 25 50  1  0
 25 51  1  0
 26 27  1  0
 26 52  1  0
 26 53  1  0
 27 54  1  0
 27 55  1  0
 28 56  1  0
 28 57  1  0
 29 30  3  0
M  CHG  1  21  -1
M  END
> <Name>
ligand_58

> <IC50 (nM)>
350000

$$$$
ligand_61
  SciTegic07132122123D

 35 36  0  0  0  0            999 V2000
   67.3953   17.5151   53.3845 C   0  0
   66.6932   16.5302   52.6845 C   0  0
   66.7856   15.1885   53.0654 C   0  0
   67.5833   14.8090   54.1541 C   0  0
   68.2737   15.8035   54.8631 C   0  0
   68.1878   17.1488   54.4743 C   0  0
   67.2570   19.1359   52.8071 Cl  0  0
   65.8905   14.0258   52.1542 Cl  0  0
   67.7249   13.3739   54.5752 C   0  0
   69.0836   18.3563   55.4199 S   0  0
   69.9384   17.6524   56.3524 O   0  0
   68.0555   19.2568   55.8990 O   0  0
   70.1928   19.3007   54.4127 C   0  0
   70.8856   18.7450   53.3326 C   0  0
   70.3486   20.6741   54.6319 C   0  0
   71.1204   21.4791   53.7711 C   0  0
   71.7794   20.9130   52.6703 C   0  0
   71.6623   19.5327   52.4604 C   0  0
   70.8837   17.3223   53.0670 N   0  3
   71.3760   16.5901   53.9270 O   0  5
   70.3819   16.9615   51.9979 O   0  0
   69.8127   21.3333   55.8120 N   0  3
   69.0457   22.2831   55.6172 O   0  0
   70.2444   20.9444   56.9022 O   0  5
   72.6052   21.7834   51.7480 C   0  0
   73.4982   22.5473   52.4309 F   0  0
   73.3290   21.0697   50.8455 F   0  0
   71.8356   22.6412   51.0303 F   0  0
   66.0742   16.8038   51.8322 H   0  0
   68.8902   15.5198   55.7172 H   0  0
   66.7514   12.9613   54.8590 H   0  0
   68.3881   13.2716   55.4409 H   0  0
   68.1537   12.7785   53.7628 H   0  0
   71.2214   22.5491   53.9680 H   0  0
   72.1837   19.0673   51.6205 H   0  0
  1  2  2  0
  1  6  1  0
  1  7  1  0
  2  3  1  0
  2 29  1  0
  3  4  2  0
  3  8  1  0
  4  5  1  0
  4  9  1  0
  5  6  2  0
  5 30  1  0
  6 10  1  0
  9 31  1  0
  9 32  1  0
  9 33  1  0
 10 11  2  0
 10 12  2  0
 10 13  1  0
 13 14  2  0
 13 15  1  0
 14 18  1  0
 14 19  1  0
 15 16  2  0
 15 22  1  0
 16 17  1  0
 16 34  1  0
 17 18  2  0
 17 25  1  0
 18 35  1  0
 19 20  1  0
 19 21  2  0
 22 23  2  0
 22 24  1  0
 25 26  1  0
 25 27  1  0
 25 28  1  0
M  CHG  4  19   1  20  -1  22   1  24  -1
M  END
> <Name>
ligand_61

> <IC50 (nM)>
300

$$$$
ligand_81
  SciTegic07132122123D

 20 21  0  0  0  0            999 V2000
   69.5890   20.2167   56.3867 C   0  0
   69.8459   20.2577   57.6253 O   0  5
   68.8004   19.3562   55.7112 C   0  0
   68.5332   19.3716   54.2609 C   0  0
   68.0572   19.9354   52.1290 C   0  0
   67.7231   18.4566   52.0690 C   0  0
   68.1445   20.3669   53.5319 N   0  0
   68.6092   17.7952   53.4857 S   0  0
   70.3225   21.1984   55.6134 C   0  0
   71.6796   22.1097   54.0995 C   0  0
   71.1652   23.2728   54.6196 C   0  0
   70.0293   22.9084   55.8437 S   0  0
   71.1987   20.9411   54.6456 N   0  0
   68.3107   18.5656   56.2688 H   0  0
   67.2839   20.5143   51.6128 H   0  0
   69.0089   20.1495   51.6260 H   0  0
   66.6503   18.2921   52.2106 H   0  0
   68.0373   17.9957   51.1293 H   0  0
   72.4144   22.0522   53.3087 H   0  0
   71.3898   24.2913   54.3473 H   0  0
  1  2  1  0
  1  3  2  0
  1  9  1  0
  3  4  1  0
  3 14  1  0
  4  7  2  0
  4  8  1  0
  5  6  1  0
  5  7  1  0
  5 15  1  0
  5 16  1  0
  6  8  1  0
  6 17  1  0
  6 18  1  0
  9 12  1  0
  9 13  2  0
 10 11  2  0
 10 13  1  0
 10 19  1  0
 11 12  1  0
 11 20  1  0
M  CHG  1   2  -1
M  END
> <Name>
ligand_81

> <IC50 (nM)>
40000

$$$$
ligand_69
  SciTegic07132122123D

 27 28  0  0  0  0            999 V2000
   66.6537   16.5199   53.4889 C   0  0
   67.4322   18.7721   54.0725 C   0  0
   66.4507   17.9107   53.5515 C   0  0
   67.9021   16.0252   53.9088 C   0  0
   68.8903   16.8779   54.4317 C   0  0
   68.6495   18.2532   54.5281 C   0  0
   69.7185   19.2690   55.5438 S   0  0
   68.8822   20.3276   56.0922 O   0  0
   70.3836   18.3661   56.4728 O   0  0
   71.0054   20.0727   54.6083 C   0  0
   70.8314   21.3846   54.1771 C   0  0
   72.2731   19.5018   54.5426 C   0  0
   73.3612   20.2508   54.0429 C   0  0
   73.2572   21.5984   53.5858 C   0  0
   71.9317   22.1179   53.6806 C   0  0
   71.5495   23.9410   53.1820 Br  0  0
   75.0654   19.3489   54.0728 Br  0  0
   74.2528   22.2750   53.1436 O   0  5
   65.5335   15.5762   53.0580 C   0  0
   64.3974   16.0766   52.7415 O   0  0
   65.7521   14.3141   53.0780 O   0  5
   67.2014   19.8291   54.1794 H   0  0
   65.4871   18.3140   53.2404 H   0  0
   68.0768   14.9499   53.8780 H   0  0
   69.8075   16.4436   54.8214 H   0  0
   69.8637   21.8692   54.2730 H   0  0
   72.4435   18.4999   54.9270 H   0  0
  1  3  2  0
  1  4  1  0
  1 19  1  0
  2  3  1  0
  2  6  2  0
  2 22  1  0
  3 23  1  0
  4  5  2  0
  4 24  1  0
  5  6  1  0
  5 25  1  0
  6  7  1  0
  7  8  2  0
  7  9  2  0
  7 10  1  0
 10 11  2  0
 10 12  1  0
 11 15  1  0
 11 26  1  0
 12 13  2  0
 12 27  1  0
 13 14  1  0
 13 17  1  0
 14 15  2  0
 14 18  1  0
 15 16  1  0
 19 20  2  0
 19 21  1  0
M  CHG  2  18  -1  21  -1
M  END
> <Name>
ligand_69

> <IC50 (nM)>
16000

$$$$
ligand_68
  SciTegic07132122123D

 57 58  0  0  0  0            999 V2000
   71.1475   25.5780   48.8055 C   0  0
   72.0883   24.4237   49.0944 C   0  0
   71.4625   22.7012   47.5856 C   0  0
   71.4203   23.1738   48.8631 O   0  0
   72.0227   23.2599   46.6496 O   0  0
   70.7295   21.4049   47.4647 C   0  0
   70.1249   20.7521   48.4861 C   0  0
   70.7028   20.8556   46.1460 C   0  0
   70.6897   20.4226   45.0665 N   0  0
   70.0315   21.0986   49.8208 N   0  0
   69.4521   20.4320   50.9206 C   0  0
   69.0856   20.3958   53.3550 C   0  0
   69.6095   20.9990   52.2010 C   0  0
   68.7453   19.2239   50.8384 C   0  0
   68.2242   18.6005   51.9907 C   0  0
   68.4038   19.1857   53.2488 C   0  0
   67.7218   18.4137   54.7114 S   0  0
   67.7336   19.3892   55.7979 O   0  0
   66.4278   17.8411   54.3510 O   0  0
   68.8259   17.0803   55.1627 C   0  0
   70.0143   17.3476   55.8511 C   0  0
   68.4850   15.7636   54.8619 C   0  0
   69.3524   14.7227   55.2282 C   0  0
   70.5593   14.9588   55.9160 C   0  0
   70.8703   16.2909   56.2235 C   0  0
   71.3779   13.8522   56.2245 N   0  0
   72.6334   13.7741   56.7972 C   0  0
   73.4061   12.6882   57.0388 C   0  0
   74.6902   12.8418   57.6465 C   0  0
   75.7370   12.9497   58.1419 N   0  0
   73.0370   11.2785   56.7089 C   0  0
   73.7742   10.3171   56.8946 O   0  0
   71.3214    9.8959   55.8260 C   0  0
   71.7592    9.5500   54.4156 C   0  0
   71.7841   11.2091   56.1770 O   0  0
   71.6254   26.5346   49.0345 H   0  0
   70.2338   25.4875   49.4021 H   0  0
   70.8422   25.5825   47.7544 H   0  0
   73.0100   24.4987   48.5063 H   0  0
   72.3778   24.4399   50.1502 H   0  0
   70.4605   21.9987   50.0467 H   0  0
   69.6304   19.8083   48.2648 H   0  0
   69.2131   20.8891   54.3171 H   0  0
   70.1343   21.9471   52.3102 H   0  0
   68.5525   18.7697   49.8688 H   0  0
   67.6899   17.6564   51.8978 H   0  0
   70.2873   18.3734   56.0933 H   0  0
   67.5520   15.5242   54.3547 H   0  0
   69.0606   13.7018   54.9858 H   0  0
   71.7653   16.5237   56.7968 H   0  0
   73.0251   14.7499   57.0775 H   0  0
   70.9742   12.9442   55.9844 H   0  0
   71.6620    9.1457   56.5487 H   0  0
   70.2279    9.9187   55.8772 H   0  0
   71.3646    8.5754   54.1148 H   0  0
   72.8507    9.5244   54.3383 H   0  0
   71.4076   10.3077   53.7076 H   0  0
  1  2  1  0
  1 36  1  0
  1 37  1  0
  1 38  1  0
  2  4  1  0
  2 39  1  0
  2 40  1  0
  3  4  1  0
  3  5  2  0
  3  6  1  0
  6  7  2  0
  6  8  1  0
  7 10  1  0
  7 42  1  0
  8  9  3  0
 10 11  1  0
 10 41  1  0
 11 13  2  0
 11 14  1  0
 12 13  1  0
 12 16  2  0
 12 43  1  0
 13 44  1  0
 14 15  2  0
 14 45  1  0
 15 16  1  0
 15 46  1  0
 16 17  1  0
 17 18  2  0
 17 19  2  0
 17 20  1  0
 20 21  2  0
 20 22  1  0
 21 25  1  0
 21 47  1  0
 22 23  2  0
 22 48  1  0
 23 24  1  0
 23 49  1  0
 24 25  2  0
 24 26  1  0
 25 50  1  0
 26 27  1  0
 26 52  1  0
 27 28  2  0
 27 51  1  0
 28 29  1  0
 28 31  1  0
 29 30  3  0
 31 32  2  0
 31 35  1  0
 33 34  1  0
 33 35  1  0
 33 53  1  0
 33 54  1  0
 34 55  1  0
 34 56  1  0
 34 57  1  0
M  END
> <Name>
ligand_68

> <IC50 (nM)>
16000

$$$$
ligand_97
  SciTegic07132122123D

 35 36  0  0  0  0            999 V2000
   70.6410   19.5106   50.4680 C   0  0
   70.1409   19.7312   51.7535 C   0  0
   68.8309   20.1844   51.9007 C   0  0
   68.0297   20.4163   50.7786 C   0  0
   68.5319   20.2040   49.4903 C   0  0
   69.8443   19.7429   49.3414 C   0  0
   67.6971   20.4392   48.2706 C   0  0
   66.4060   21.1863   48.4639 C   0  0
   68.0828   19.9669   47.2054 O   0  0
   65.7100   21.7426   47.2598 C   0  0
   64.2277   22.0551   47.4674 C   0  0
   66.2374   22.0723   46.2016 O   0  0
   63.4424   21.9810   46.4726 O   0  0
   63.9252   22.3273   48.6773 O   0  5
   71.0220   19.4694   52.7668 O   0  0
   70.5780   19.6763   54.1080 C   0  0
   70.7413   21.1100   54.5590 C   0  0
   69.6657   21.7984   55.1378 C   0  0
   69.7925   23.1396   55.5037 C   0  0
   71.0028   23.8012   55.3172 C   0  0
   72.0829   23.1236   54.7557 C   0  0
   71.9576   21.7836   54.3842 C   0  0
   71.6605   19.1562   50.3375 H   0  0
   68.3866   20.3759   52.8699 H   0  0
   67.0113   20.7585   50.9455 H   0  0
   70.2522   19.5659   48.3482 H   0  0
   66.5908   22.0468   49.1181 H   0  0
   65.7170   20.4884   48.9559 H   0  0
   69.5690   19.2805   54.2769 H   0  0
   71.2281   19.0636   54.7465 H   0  0
   68.7002   21.3102   55.2589 H   0  0
   68.9246   23.6728   55.8833 H   0  0
   71.1014   24.8485   55.5883 H   0  0
   73.0204   23.6449   54.5871 H   0  0
   72.8065   21.2736   53.9327 H   0  0
  1  2  1  0
  1  6  2  0
  1 23  1  0
  2  3  2  0
  2 15  1  0
  3  4  1  0
  3 24  1  0
  4  5  2  0
  4 25  1  0
  5  6  1  0
  5  7  1  0
  6 26  1  0
  7  8  1  0
  7  9  2  0
  8 10  1  0
  8 27  1  0
  8 28  1  0
 10 11  1  0
 10 12  2  0
 11 13  2  0
 11 14  1  0
 15 16  1  0
 16 17  1  0
 16 29  1  0
 16 30  1  0
 17 18  2  0
 17 22  1  0
 18 19  1  0
 18 31  1  0
 19 20  2  0
 19 32  1  0
 20 21  1  0
 20 33  1  0
 21 22  2  0
 21 34  1  0
 22 35  1  0
M  CHG  1  14  -1
M  END
> <Name>
ligand_97

> <IC50 (nM)>
39900

$$$$
