ligand_52
     RDKit          3D

 42 44  0  0  0  0  0  0  0  0999 V2000
   70.6605   17.6989   55.3480 C   0  0  0  0  0  0  0  0  0  0  0  0
   70.7634   17.2576   54.0291 C   0  0  0  0  0  0  0  0  0  0  0  0
   70.0702   17.9182   53.0158 C   0  0  0  0  0  0  0  0  0  0  0  0
   69.2627   19.0279   53.2972 C   0  0  0  0  0  0  0  0  0  0  0  0
   69.1641   19.4676   54.6282 C   0  0  0  0  0  0  0  0  0  0  0  0
   69.8640   18.8080   55.6720 C   0  0  0  0  0  0  0  0  0  0  0  0
   67.7802   20.7113   52.1211 C   0  0  0  0  0  0  0  0  0  0  0  0
   68.6126   19.6078   52.1866 N   0  0  0  0  0  0  0  0  0  0  0  0
   67.4444   21.3904   53.0912 O   0  0  0  0  0  0  0  0  0  0  0  0
   67.2025   20.9778   50.7154 C   0  0  0  0  0  0  0  0  0  0  0  0
   68.3926   20.5692   49.3985 S   0  0  0  0  0  0  0  0  0  0  0  0
   69.7830   19.2520   57.1227 C   0  0  0  0  0  0  0  0  0  0  0  0
   71.0052   19.5464   57.6690 F   0  0  0  0  0  0  0  0  0  0  0  0
   69.0147   20.3598   57.3172 F   0  0  0  0  0  0  0  0  0  0  0  0
   69.2657   18.2915   57.9523 F   0  0  0  0  0  0  0  0  0  0  0  0
   67.4144   20.7202   47.9489 C   0  0  0  0  0  0  0  0  0  0  0  0
   65.6248   21.4364   46.7536 C   0  0  0  0  0  0  0  0  0  0  0  0
   66.1019   20.8718   45.6316 C   0  0  0  0  0  0  0  0  0  0  0  0
   67.4062   20.1635   45.7346 C   0  0  0  0  0  0  0  0  0  0  0  0
   66.3040   21.3822   47.9472 N   0  0  0  0  0  0  0  0  0  0  0  0
   67.9918   20.0922   46.9332 N   0  0  0  0  0  0  0  0  0  0  0  0
   67.8805   19.6668   44.7113 O   0  0  0  0  0  0  0  0  0  0  0  0
   65.4476   20.9253   44.3718 C   0  0  0  0  0  0  0  0  0  0  0  0
   64.8648   20.9826   43.3659 N   0  0  0  0  0  0  0  0  0  0  0  0
   64.3505   22.1937   46.7698 C   0  0  0  0  0  0  0  0  0  0  0  0
   64.3664   23.5661   47.0562 C   0  0  0  0  0  0  0  0  0  0  0  0
   63.1817   24.3049   47.0629 C   0  0  0  0  0  0  0  0  0  0  0  0
   61.9685   23.6754   46.7895 C   0  0  0  0  0  0  0  0  0  0  0  0
   61.9361   22.3084   46.5158 C   0  0  0  0  0  0  0  0  0  0  0  0
   63.1210   21.5687   46.5139 C   0  0  0  0  0  0  0  0  0  0  0  0
   71.2075   17.1741   56.1287 H   0  0  0  0  0  0  0  0  0  0  0  0
   71.3853   16.3987   53.7873 H   0  0  0  0  0  0  0  0  0  0  0  0
   70.1612   17.5589   51.9908 H   0  0  0  0  0  0  0  0  0  0  0  0
   68.5472   20.3282   54.8792 H   0  0  0  0  0  0  0  0  0  0  0  0
   68.8107   19.1962   51.2763 H   0  0  0  0  0  0  0  0  0  0  0  0
   66.9380   22.0373   50.6465 H   0  0  0  0  0  0  0  0  0  0  0  0
   66.3007   20.3669   50.6070 H   0  0  0  0  0  0  0  0  0  0  0  0
   65.3125   24.0532   47.2861 H   0  0  0  0  0  0  0  0  0  0  0  0
   63.2087   25.3684   47.2825 H   0  0  0  0  0  0  0  0  0  0  0  0
   61.0468   24.2501   46.7911 H   0  0  0  0  0  0  0  0  0  0  0  0
   60.9899   21.8187   46.3001 H   0  0  0  0  0  0  0  0  0  0  0  0
   63.0852   20.4996   46.3165 H   0  0  0  0  0  0  0  0  0  0  0  0
  1  2  2  0
  1  6  1  0
  1 31  1  0
  2  3  1  0
  2 32  1  0
  3  4  2  0
  3 33  1  0
  4  5  1  0
  4  8  1  0
  5  6  2  0
  5 34  1  0
  6 12  1  0
  7  8  1  0
  7  9  2  0
  7 10  1  0
  8 35  1  0
 10 11  1  0
 10 36  1  0
 10 37  1  0
 11 16  1  0
 12 13  1  0
 12 14  1  0
 12 15  1  0
 16 20  2  0
 16 21  1  0
 17 18  2  0
 17 20  1  0
 17 25  1  0
 18 19  1  0
 18 23  1  0
 19 21  1  0
 19 22  2  0
 23 24  3  0
 25 26  2  0
 25 30  1  0
 26 27  1  0
 26 38  1  0
 27 28  2  0
 27 39  1  0
 28 29  1  0
 28 40  1  0
 29 30  2  0
 29 41  1  0
 30 42  1  0
M  CHG  1  21  -1
A    1
-0.11751512
A    2
-0.08458448
A    3
-0.22856577
A    4
0.28921074
A    5
-0.28815055
A    6
-0.10296676
A    7
0.60633594
A    8
-0.55139136
A    9
-0.51074064
A   10
-0.33338758
A   11
-0.05497769
A   12
0.5891199
A   13
-0.23864913
A   14
-0.24404237
A   15
-0.23011653
A   16
0.41125602
A   17
0.23644403
A   18
-0.21751666
A   19
0.4902709
A   20
-0.45801693
A   21
-0.54806405
A   22
-0.51156825
A   23
0.26690486
A   24
-0.4424659
A   25
0.030090272
A   26
-0.12132934
A   27
-0.10210992
A   28
-0.09902473
A   29
-0.10235832
A   30
-0.1269593
A   31
0.13516308
A   32
0.13448866
A   33
0.14029694
A   34
0.14998499
A   35
0.29789194
A   36
0.15161054
A   37
0.14740911
A   38
0.11359164
A   39
0.12453954
A   40
0.12846163
A   41
0.14408426
A   42
0.12734653
M  END
>  <IC50 (nM)>  (1) 
200000

>  <charge>  (1) 
0

$$$$
ligand_109
     RDKit          3D

 64 66  0  0  0  0  0  0  0  0999 V2000
   70.8443   15.3666   56.4700 O   0  0  0  0  0  0  0  0  0  0  0  0
   71.1627   20.5403   56.2934 O   0  0  0  0  0  0  0  0  0  0  0  0
   69.2340   19.2504   53.7537 O   0  0  0  0  0  0  0  0  0  0  0  0
   68.0269   12.6753   58.0918 O   0  0  0  0  0  0  0  0  0  0  0  0
   68.1063   14.5124   56.8752 O   0  0  0  0  0  0  0  0  0  0  0  0
   70.8952   22.7140   54.5662 N   0  0  0  0  0  0  0  0  0  0  0  0
   68.9157   20.0671   56.5550 N   0  0  0  0  0  0  0  0  0  0  0  0
   69.8233   17.5411   55.1970 N   0  0  0  0  0  0  0  0  0  0  0  0
   68.4224   13.3383   57.1270 N   0  0  0  0  0  0  0  0  0  0  0  0
   69.1450   22.5979   56.3441 C   0  0  0  0  0  0  0  0  0  0  0  0
   69.4066   22.5614   54.8383 C   0  0  0  0  0  0  0  0  0  0  0  0
   68.3723   21.3797   56.8509 C   0  0  0  0  0  0  0  0  0  0  0  0
   71.2952   21.9761   53.3200 C   0  0  0  0  0  0  0  0  0  0  0  0
   71.3973   24.1292   54.6175 C   0  0  0  0  0  0  0  0  0  0  0  0
   70.2347   19.7385   56.3457 C   0  0  0  0  0  0  0  0  0  0  0  0
   70.4404   18.2580   56.2087 C   0  0  0  0  0  0  0  0  0  0  0  0
   71.4310   16.3057   57.2886 C   0  0  0  0  0  0  0  0  0  0  0  0
   71.1887   17.7055   57.1824 C   0  0  0  0  0  0  0  0  0  0  0  0
   71.2335   14.1293   56.8678 C   0  0  0  0  0  0  0  0  0  0  0  0
   70.6577   13.0435   56.1007 C   0  0  0  0  0  0  0  0  0  0  0  0
   72.2357   15.6162   58.1900 C   0  0  0  0  0  0  0  0  0  0  0  0
   72.1177   14.2288   57.9133 C   0  0  0  0  0  0  0  0  0  0  0  0
   69.3046   12.6776   56.1885 C   0  0  0  0  0  0  0  0  0  0  0  0
   69.2323   18.0613   54.0606 C   0  0  0  0  0  0  0  0  0  0  0  0
   68.6107   17.0735   53.1315 C   0  0  0  0  0  0  0  0  0  0  0  0
   71.4712   12.3429   55.1992 C   0  0  0  0  0  0  0  0  0  0  0  0
   68.7551   11.6644   55.3967 C   0  0  0  0  0  0  0  0  0  0  0  0
   68.0223   15.8893   53.5888 C   0  0  0  0  0  0  0  0  0  0  0  0
   68.5844   17.3700   51.7631 C   0  0  0  0  0  0  0  0  0  0  0  0
   67.4417   15.2776   51.3099 C   0  0  0  0  0  0  0  0  0  0  0  0
   70.9309   11.3415   54.3892 C   0  0  0  0  0  0  0  0  0  0  0  0
   67.4425   14.9959   52.6818 C   0  0  0  0  0  0  0  0  0  0  0  0
   68.0018   16.4783   50.8586 C   0  0  0  0  0  0  0  0  0  0  0  0
   69.5763   11.0195   54.4778 C   0  0  0  0  0  0  0  0  0  0  0  0
   66.7820   14.3375   50.3413 C   0  0  0  0  0  0  0  0  0  0  0  0
   68.2586   19.2922   56.5658 H   0  0  0  0  0  0  0  0  0  0  0  0
   69.9110   16.5286   55.2702 H   0  0  0  0  0  0  0  0  0  0  0  0
   68.5493   23.4909   56.5722 H   0  0  0  0  0  0  0  0  0  0  0  0
   70.0684   22.7072   56.9245 H   0  0  0  0  0  0  0  0  0  0  0  0
   69.0694   21.6311   54.3785 H   0  0  0  0  0  0  0  0  0  0  0  0
   68.9051   23.3892   54.3248 H   0  0  0  0  0  0  0  0  0  0  0  0
   67.3580   21.3912   56.4359 H   0  0  0  0  0  0  0  0  0  0  0  0
   68.2734   21.4392   57.9404 H   0  0  0  0  0  0  0  0  0  0  0  0
   72.3725   22.1041   53.1835 H   0  0  0  0  0  0  0  0  0  0  0  0
   70.7448   22.3997   52.4760 H   0  0  0  0  0  0  0  0  0  0  0  0
   71.0712   20.9172   53.4519 H   0  0  0  0  0  0  0  0  0  0  0  0
   72.4857   24.1039   54.5221 H   0  0  0  0  0  0  0  0  0  0  0  0
   71.1158   24.5574   55.5822 H   0  0  0  0  0  0  0  0  0  0  0  0
   70.9439   24.6856   53.7933 H   0  0  0  0  0  0  0  0  0  0  0  0
   71.6294   18.3392   57.9490 H   0  0  0  0  0  0  0  0  0  0  0  0
   72.8365   16.0653   58.9714 H   0  0  0  0  0  0  0  0  0  0  0  0
   72.6007   13.4081   58.4301 H   0  0  0  0  0  0  0  0  0  0  0  0
   72.5303   12.5796   55.1075 H   0  0  0  0  0  0  0  0  0  0  0  0
   67.7145   11.3559   55.4949 H   0  0  0  0  0  0  0  0  0  0  0  0
   67.9718   15.6594   54.6479 H   0  0  0  0  0  0  0  0  0  0  0  0
   69.0151   18.2970   51.3921 H   0  0  0  0  0  0  0  0  0  0  0  0
   71.5675   10.7897   53.6965 H   0  0  0  0  0  0  0  0  0  0  0  0
   66.9775   14.0810   53.0498 H   0  0  0  0  0  0  0  0  0  0  0  0
   67.9828   16.7273   49.7985 H   0  0  0  0  0  0  0  0  0  0  0  0
   69.1679   10.2368   53.8441 H   0  0  0  0  0  0  0  0  0  0  0  0
   65.7277   14.6045   50.2204 H   0  0  0  0  0  0  0  0  0  0  0  0
   66.8477   13.3033   50.6955 H   0  0  0  0  0  0  0  0  0  0  0  0
   67.2732   14.3778   49.3634 H   0  0  0  0  0  0  0  0  0  0  0  0
   71.3416   22.1397   55.3166 H   0  0  0  0  0  0  0  0  0  0  0  0
  1 17  1  0
  1 19  1  0
  2 15  2  0
  3 24  2  0
  4  9  1  0
  5  9  2  0
  6 11  1  0
  6 13  1  0
  6 14  1  0
  6 64  1  0
  7 12  1  0
  7 15  1  0
  7 36  1  0
  8 16  1  0
  8 24  1  0
  8 37  1  0
  9 23  1  0
 10 11  1  0
 10 12  1  0
 10 38  1  0
 10 39  1  0
 11 40  1  0
 11 41  1  0
 12 42  1  0
 12 43  1  0
 13 44  1  0
 13 45  1  0
 13 46  1  0
 14 47  1  0
 14 48  1  0
 14 49  1  0
 15 16  1  0
 16 18  2  0
 17 18  1  0
 17 21  2  0
 18 50  1  0
 19 20  1  0
 19 22  2  0
 20 23  2  0
 20 26  1  0
 21 22  1  0
 21 51  1  0
 22 52  1  0
 23 27  1  0
 24 25  1  0
 25 28  2  0
 25 29  1  0
 26 31  2  0
 26 53  1  0
 27 34  2  0
 27 54  1  0
 28 32  1  0
 28 55  1  0
 29 33  2  0
 29 56  1  0
 30 32  2  0
 30 33  1  0
 30 35  1  0
 31 34  1  0
 31 57  1  0
 32 58  1  0
 33 59  1  0
 34 60  1  0
 35 61  1  0
 35 62  1  0
 35 63  1  0
M  CHG  3   4  -1   6   1   9   1
A    1
-0.2026202
A    2
-0.5206231
A    3
-0.54646164
A    4
-0.34149775
A    5
-0.3033094
A    6
0.08438752
A    7
-0.48784113
A    8
-0.4769105
A    9
0.6315606
A   10
-0.17166509
A   11
-0.06672894
A   12
0.019503968
A   13
-0.29119813
A   14
-0.26854086
A   15
0.53469354
A   16
0.17870997
A   17
0.26607323
A   18
-0.3173926
A   19
0.24338208
A   20
-0.032312036
A   21
-0.22771275
A   22
-0.2279761
A   23
0.0145793315
A   24
0.5556426
A   25
-0.04778095
A   26
-0.11816466
A   27
-0.12535633
A   28
-0.115472384
A   29
-0.113128364
A   30
0.16424046
A   31
-0.0943317
A   32
-0.16501679
A   33
-0.14809445
A   34
-0.09772399
A   35
-0.40570349
A   36
0.3044399
A   37
0.34250385
A   38
0.092912234
A   39
0.086289056
A   40
0.09311756
A   41
0.09288279
A   42
0.07428534
A   43
0.079384506
A   44
0.13844435
A   45
0.1376827
A   46
0.13213848
A   47
0.1314874
A   48
0.1339266
A   49
0.12454787
A   50
0.18038952
A   51
0.15740749
A   52
0.16958544
A   53
0.1439184
A   54
0.15004607
A   55
0.13502316
A   56
0.13443527
A   57
0.13820729
A   58
0.13473754
A   59
0.13924588
A   60
0.14335506
A   61
0.1178417
A   62
0.11289028
A   63
0.11959874
A   64
0.28006548
M  END
>  <Name>  (2) 
ligand_109

>  <IC50 (nM)>  (2) 
41390

>  <charge>  (2) 
1

$$$$
ligand_112
     RDKit          3D

 56 58  0  0  0  0  0  0  0  0999 V2000
   72.0033   23.3625   54.3247 C   0  0  0  0  0  0  0  0  0  0  0  0
   72.0988   22.7499   53.0771 C   0  0  0  0  0  0  0  0  0  0  0  0
   71.4028   21.5658   52.8203 C   0  0  0  0  0  0  0  0  0  0  0  0
   70.5914   20.9952   53.8061 C   0  0  0  0  0  0  0  0  0  0  0  0
   70.5123   21.6079   55.0622 C   0  0  0  0  0  0  0  0  0  0  0  0
   71.2104   22.7894   55.3169 C   0  0  0  0  0  0  0  0  0  0  0  0
   69.8811   19.7291   53.5935 C   0  0  0  0  0  0  0  0  0  0  0  0
   68.9820   19.4497   52.6352 C   0  0  0  0  0  0  0  0  0  0  0  0
   68.3255   18.2361   52.4783 N   0  0  0  0  0  0  0  0  0  0  0  0
   68.5584   20.4948   51.6378 C   0  0  0  0  0  0  0  0  0  0  0  0
   68.8383   20.0530   50.3501 N   0  0  0  0  0  0  0  0  0  0  0  0
   67.9538   21.5039   51.9730 O   0  0  0  0  0  0  0  0  0  0  0  0
   68.3084   20.4940   49.1701 N   0  0  0  0  0  0  0  0  0  0  0  0
   67.2417   21.2259   49.1917 C   0  0  0  0  0  0  0  0  0  0  0  0
   66.5610   21.6277   47.9436 C   0  0  0  0  0  0  0  0  0  0  0  0
   67.1331   21.3612   46.6941 C   0  0  0  0  0  0  0  0  0  0  0  0
   66.4313   21.6675   45.5266 C   0  0  0  0  0  0  0  0  0  0  0  0
   65.1590   22.2421   45.6465 C   0  0  0  0  0  0  0  0  0  0  0  0
   64.5793   22.5139   46.8947 C   0  0  0  0  0  0  0  0  0  0  0  0
   65.2965   22.2157   48.0503 C   0  0  0  0  0  0  0  0  0  0  0  0
   63.3173   23.0621   46.8566 O   0  0  0  0  0  0  0  0  0  0  0  0
   62.6194   23.0575   48.1013 C   0  0  0  0  0  0  0  0  0  0  0  0
   64.4422   22.5280   44.5122 O   0  0  0  0  0  0  0  0  0  0  0  0
   66.8945   21.4516   44.2506 O   0  0  0  0  0  0  0  0  0  0  0  0
   68.0529   20.6297   44.1464 C   0  0  0  0  0  0  0  0  0  0  0  0
   68.5364   17.0601   53.1671 C   0  0  0  0  0  0  0  0  0  0  0  0
   67.5385   15.9819   52.9236 C   0  0  0  0  0  0  0  0  0  0  0  0
   69.4720   16.8314   53.9252 O   0  0  0  0  0  0  0  0  0  0  0  0
   66.1935   16.2628   52.6479 C   0  0  0  0  0  0  0  0  0  0  0  0
   65.2856   15.2155   52.4701 C   0  0  0  0  0  0  0  0  0  0  0  0
   65.7114   13.8909   52.5738 C   0  0  0  0  0  0  0  0  0  0  0  0
   67.0462   13.6102   52.8582 C   0  0  0  0  0  0  0  0  0  0  0  0
   67.9572   14.6507   53.0421 C   0  0  0  0  0  0  0  0  0  0  0  0
   72.5502   24.2790   54.5294 H   0  0  0  0  0  0  0  0  0  0  0  0
   72.7088   23.1892   52.2927 H   0  0  0  0  0  0  0  0  0  0  0  0
   71.5138   21.0966   51.8469 H   0  0  0  0  0  0  0  0  0  0  0  0
   69.9078   21.1714   55.8548 H   0  0  0  0  0  0  0  0  0  0  0  0
   71.1396   23.2558   56.2957 H   0  0  0  0  0  0  0  0  0  0  0  0
   70.1353   18.9812   54.3381 H   0  0  0  0  0  0  0  0  0  0  0  0
   67.6109   18.2294   51.7577 H   0  0  0  0  0  0  0  0  0  0  0  0
   69.5103   19.2975   50.2412 H   0  0  0  0  0  0  0  0  0  0  0  0
   66.7266   21.5259   50.1170 H   0  0  0  0  0  0  0  0  0  0  0  0
   68.1226   20.9180   46.6586 H   0  0  0  0  0  0  0  0  0  0  0  0
   64.8919   22.4204   49.0355 H   0  0  0  0  0  0  0  0  0  0  0  0
   61.5956   23.3913   47.9059 H   0  0  0  0  0  0  0  0  0  0  0  0
   63.0684   23.7667   48.8043 H   0  0  0  0  0  0  0  0  0  0  0  0
   62.5626   22.0500   48.5275 H   0  0  0  0  0  0  0  0  0  0  0  0
   63.6253   22.9702   44.8113 H   0  0  0  0  0  0  0  0  0  0  0  0
   68.2306   20.4423   43.0828 H   0  0  0  0  0  0  0  0  0  0  0  0
   67.9031   19.6591   44.6314 H   0  0  0  0  0  0  0  0  0  0  0  0
   68.9353   21.1435   44.5414 H   0  0  0  0  0  0  0  0  0  0  0  0
   65.8231   17.2832   52.6095 H   0  0  0  0  0  0  0  0  0  0  0  0
   64.2406   15.4349   52.2649 H   0  0  0  0  0  0  0  0  0  0  0  0
   65.0017   13.0761   52.4512 H   0  0  0  0  0  0  0  0  0  0  0  0
   67.3794   12.5803   52.9572 H   0  0  0  0  0  0  0  0  0  0  0  0
   68.9906   14.4154   53.2931 H   0  0  0  0  0  0  0  0  0  0  0  0
  1  2  2  0
  1  6  1  0
  1 34  1  0
  2  3  1  0
  2 35  1  0
  3  4  2  0
  3 36  1  0
  4  5  1  0
  4  7  1  0
  5  6  2  0
  5 37  1  0
  6 38  1  0
  7  8  2  0
  7 39  1  0
  8  9  1  0
  8 10  1  0
  9 26  1  0
  9 40  1  0
 10 11  1  0
 10 12  2  0
 11 13  1  0
 11 41  1  0
 13 14  2  0
 14 15  1  0
 14 42  1  0
 15 16  2  0
 15 20  1  0
 16 17  1  0
 16 43  1  0
 17 18  2  0
 17 24  1  0
 18 19  1  0
 18 23  1  0
 19 20  2  0
 19 21  1  0
 20 44  1  0
 21 22  1  0
 22 45  1  0
 22 46  1  0
 22 47  1  0
 23 48  1  0
 24 25  1  0
 25 49  1  0
 25 50  1  0
 25 51  1  0
 26 27  1  0
 26 28  2  0
 27 29  2  0
 27 33  1  0
 29 30  1  0
 29 52  1  0
 30 31  2  0
 30 53  1  0
 31 32  1  0
 31 54  1  0
 32 33  2  0
 32 55  1  0
 33 56  1  0
A    1
-0.09800516
A    2
-0.08578213
A    3
-0.15288728
A    4
0.1361638
A    5
-0.1429294
A    6
-0.09085545
A    7
-0.27983344
A    8
0.15726145
A    9
-0.49121782
A   10
0.458264
A   11
-0.33533382
A   12
-0.5235552
A   13
-0.16022387
A   14
0.016151031
A   15
0.0991915
A   16
-0.29412672
A   17
0.15908182
A   18
0.12180799
A   19
0.16723394
A   20
-0.2786863
A   21
-0.18211092
A   22
-0.16342595
A   23
-0.49229014
A   24
-0.1787471
A   25
-0.17496938
A   26
0.5452366
A   27
-0.05327944
A   28
-0.5654764
A   29
-0.12273185
A   30
-0.10219203
A   31
-0.09563343
A   32
-0.107326984
A   33
-0.106286675
A   34
0.12056254
A   35
0.12171608
A   36
0.12602776
A   37
0.12880927
A   38
0.13192587
A   39
0.13463141
A   40
0.305093
A   41
0.28827214
A   42
0.1359006
A   43
0.1496604
A   44
0.14461944
A   45
0.10467778
A   46
0.09523475
A   47
0.09972487
A   48
0.37273487
A   49
0.10940474
A   50
0.09554478
A   51
0.093814
A   52
0.134242
A   53
0.13729566
A   54
0.12591507
A   55
0.12715195
A   56
0.13455601
M  END
>  <Name>  (3) 
ligand_112

>  <IC50 (nM)>  (3) 
77090

>  <charge>  (3) 
0

$$$$
ligand_117
     RDKit          3D

 50 54  0  0  0  0  0  0  0  0999 V2000
   64.6789   22.5390   45.5509 C   0  0  0  0  0  0  0  0  0  0  0  0
   65.3312   22.6093   44.3200 C   0  0  0  0  0  0  0  0  0  0  0  0
   66.6613   22.2259   44.2448 C   0  0  0  0  0  0  0  0  0  0  0  0
   67.3358   21.7799   45.3772 C   0  0  0  0  0  0  0  0  0  0  0  0
   66.6866   21.6960   46.6246 C   0  0  0  0  0  0  0  0  0  0  0  0
   65.3356   22.0894   46.7230 C   0  0  0  0  0  0  0  0  0  0  0  0
   67.4721   21.1710   47.7293 C   0  0  0  0  0  0  0  0  0  0  0  0
   66.9310   20.1305   48.4097 O   0  0  0  0  0  0  0  0  0  0  0  0
   67.7695   19.7880   49.4476 C   0  0  0  0  0  0  0  0  0  0  0  0
   68.9292   20.5367   49.2923 C   0  0  0  0  0  0  0  0  0  0  0  0
   68.7329   21.4317   48.2125 C   0  0  0  0  0  0  0  0  0  0  0  0
   67.3478   18.8048   50.3780 C   0  0  0  0  0  0  0  0  0  0  0  0
   67.6982   18.7018   51.6651 C   0  0  0  0  0  0  0  0  0  0  0  0
   68.5985   19.5115   52.5289 C   0  0  0  0  0  0  0  0  0  0  0  0
   68.3111   19.0291   53.8194 N   0  0  0  0  0  0  0  0  0  0  0  0
   67.4108   17.9712   53.8464 N   0  0  0  0  0  0  0  0  0  0  0  0
   67.0683   17.7500   52.6072 C   0  0  0  0  0  0  0  0  0  0  0  0
   69.3979   20.3556   52.1712 O   0  0  0  0  0  0  0  0  0  0  0  0
   68.8248   19.4991   55.0540 C   0  0  0  0  0  0  0  0  0  0  0  0
   68.3940   18.9178   56.2594 C   0  0  0  0  0  0  0  0  0  0  0  0
   68.8480   19.3894   57.4914 C   0  0  0  0  0  0  0  0  0  0  0  0
   69.7450   20.4505   57.5343 C   0  0  0  0  0  0  0  0  0  0  0  0
   70.2020   21.0275   56.3558 C   0  0  0  0  0  0  0  0  0  0  0  0
   69.7408   20.5568   55.1233 C   0  0  0  0  0  0  0  0  0  0  0  0
   66.1568   16.6711   52.2234 C   0  0  0  0  0  0  0  0  0  0  0  0
   67.4918   22.2901   42.7395 Cl  0  0  0  0  0  0  0  0  0  0  0  0
   64.5285   22.0788   48.0124 C   0  0  0  0  0  0  0  0  0  0  0  0
   65.1198   22.3230   49.1110 O   0  0  0  0  0  0  0  0  0  0  0  0
   63.2752   21.8844   47.8683 O   0  0  0  0  0  0  0  0  0  0  0  0
   64.9142   16.5836   52.8576 C   0  0  0  0  0  0  0  0  0  0  0  0
   64.0432   15.5469   52.5257 C   0  0  0  0  0  0  0  0  0  0  0  0
   64.4253   14.5934   51.5817 C   0  0  0  0  0  0  0  0  0  0  0  0
   65.6750   14.6707   50.9652 C   0  0  0  0  0  0  0  0  0  0  0  0
   66.5474   15.7093   51.2868 C   0  0  0  0  0  0  0  0  0  0  0  0
   63.6334   22.8419   45.6206 H   0  0  0  0  0  0  0  0  0  0  0  0
   64.7934   22.9573   43.4437 H   0  0  0  0  0  0  0  0  0  0  0  0
   68.3759   21.4753   45.2886 H   0  0  0  0  0  0  0  0  0  0  0  0
   69.8160   20.4781   49.9041 H   0  0  0  0  0  0  0  0  0  0  0  0
   69.4134   22.1839   47.8394 H   0  0  0  0  0  0  0  0  0  0  0  0
   66.5573   18.1692   49.9887 H   0  0  0  0  0  0  0  0  0  0  0  0
   67.6732   18.1038   56.2425 H   0  0  0  0  0  0  0  0  0  0  0  0
   68.4906   18.9369   58.4123 H   0  0  0  0  0  0  0  0  0  0  0  0
   70.0841   20.8372   58.4882 H   0  0  0  0  0  0  0  0  0  0  0  0
   70.8994   21.8600   56.3867 H   0  0  0  0  0  0  0  0  0  0  0  0
   70.1064   21.0519   54.2288 H   0  0  0  0  0  0  0  0  0  0  0  0
   64.6203   17.3225   53.6000 H   0  0  0  0  0  0  0  0  0  0  0  0
   63.0668   15.4793   53.0005 H   0  0  0  0  0  0  0  0  0  0  0  0
   63.7446   13.7843   51.3295 H   0  0  0  0  0  0  0  0  0  0  0  0
   65.9663   13.9213   50.2332 H   0  0  0  0  0  0  0  0  0  0  0  0
   67.5247   15.7536   50.8137 H   0  0  0  0  0  0  0  0  0  0  0  0
  1  2  2  0
  1  6  1  0
  1 35  1  0
  2  3  1  0
  2 36  1  0
  3  4  2  0
  3 26  1  0
  4  5  1  0
  4 37  1  0
  5  6  2  0
  5  7  1  0
  6 27  1  0
  7  8  1  0
  7 11  2  0
  8  9  1  0
  9 10  2  0
  9 12  1  0
 10 11  1  0
 10 38  1  0
 11 39  1  0
 12 13  2  0
 12 40  1  0
 13 14  1  0
 13 17  1  0
 14 15  1  0
 14 18  2  0
 15 16  1  0
 15 19  1  0
 16 17  2  0
 17 25  1  0
 19 20  2  0
 19 24  1  0
 20 21  1  0
 20 41  1  0
 21 22  2  0
 21 42  1  0
 22 23  1  0
 22 43  1  0
 23 24  2  0
 23 44  1  0
 24 45  1  0
 25 30  2  0
 25 34  1  0
 27 28  2  0
 27 29  1  0
 30 31  1  0
 30 46  1  0
 31 32  2  0
 31 47  1  0
 32 33  1  0
 32 48  1  0
 33 34  2  0
 33 49  1  0
 34 50  1  0
M  CHG  1  29  -1
A    1
-0.09733707
A    2
-0.18068609
A    3
0.14996727
A    4
-0.21917494
A    5
0.023076683
A    6
-0.0991835
A    7
0.19726348
A    8
-0.22365272
A    9
0.24075478
A   10
-0.25215936
A   11
-0.22613
A   12
-0.21793006
A   13
-0.116735026
A   14
0.42634347
A   15
-0.053368013
A   16
-0.29726568
A   17
0.17523819
A   18
-0.51089793
A   19
0.16776769
A   20
-0.20061547
A   21
-0.090856984
A   22
-0.116463624
A   23
-0.089813605
A   24
-0.21731663
A   25
0.03293988
A   26
-0.100961976
A   27
0.5167332
A   28
-0.5718616
A   29
-0.5580831
A   30
-0.13440973
A   31
-0.10440533
A   32
-0.104735106
A   33
-0.10798352
A   34
-0.14182542
A   35
0.13584955
A   36
0.14566745
A   37
0.14414951
A   38
0.14444484
A   39
0.14598504
A   40
0.14723508
A   41
0.12629332
A   42
0.11919996
A   43
0.13511135
A   44
0.12160796
A   45
0.12714288
A   46
0.12496022
A   47
0.118806675
A   48
0.12344193
A   49
0.123024896
A   50
0.120847136
M  END
>  <Name>  (4) 
ligand_117

>  <IC50 (nM)>  (4) 
16400

>  <charge>  (4) 
0

$$$$
ligand_74
     RDKit          3D

 38 40  0  0  0  0  0  0  0  0999 V2000
   70.3534   20.5431   54.9214 C   0  0  0  0  0  0  0  0  0  0  0  0
   70.2293   21.6484   55.6712 C   0  0  0  0  0  0  0  0  0  0  0  0
   70.6471   20.4232   53.5565 N   0  0  0  0  0  0  0  0  0  0  0  0
   70.9062   19.2803   53.1666 O   0  0  0  0  0  0  0  0  0  0  0  0
   70.5832   21.4421   52.8626 O   0  0  0  0  0  0  0  0  0  0  0  0
   69.7703   21.3303   56.9397 N   0  0  0  0  0  0  0  0  0  0  0  0
   69.5893   19.9426   56.9807 O   0  0  0  0  0  0  0  0  0  0  0  0
   69.9135   19.4934   55.8060 C   0  0  0  0  0  0  0  0  0  0  0  0
   70.5105   23.0756   55.3344 C   0  0  0  0  0  0  0  0  0  0  0  0
   69.3027   17.2376   56.3629 C   0  0  0  0  0  0  0  0  0  0  0  0
   68.5275   17.5409   57.2658 O   0  0  0  0  0  0  0  0  0  0  0  0
   69.8413   18.1861   55.5136 N   0  0  0  0  0  0  0  0  0  0  0  0
   69.6790   15.8591   56.0543 C   0  0  0  0  0  0  0  0  0  0  0  0
   69.2776   14.6992   56.6888 C   0  0  0  0  0  0  0  0  0  0  0  0
   69.9380   13.5306   56.1801 C   0  0  0  0  0  0  0  0  0  0  0  0
   70.7799   15.5019   54.7953 S   0  0  0  0  0  0  0  0  0  0  0  0
   70.8272   13.8223   55.1654 C   0  0  0  0  0  0  0  0  0  0  0  0
   71.7543   12.9687   54.4643 C   0  0  0  0  0  0  0  0  0  0  0  0
   72.9599   13.3396   53.9031 C   0  0  0  0  0  0  0  0  0  0  0  0
   73.5130   12.1789   53.3141 C   0  0  0  0  0  0  0  0  0  0  0  0
   72.7199   11.1132   53.5358 N   0  0  0  0  0  0  0  0  0  0  0  0
   71.6470   11.6206   54.1898 N   0  0  0  0  0  0  0  0  0  0  0  0
   70.5295   10.7446   54.4538 C   0  0  0  0  0  0  0  0  0  0  0  0
   74.8052   12.1571   52.5483 C   0  0  0  0  0  0  0  0  0  0  0  0
   75.8179   11.5598   53.2371 F   0  0  0  0  0  0  0  0  0  0  0  0
   74.7213   11.5089   51.3520 F   0  0  0  0  0  0  0  0  0  0  0  0
   75.2226   13.4297   52.2756 F   0  0  0  0  0  0  0  0  0  0  0  0
   70.9631   23.5862   56.1918 H   0  0  0  0  0  0  0  0  0  0  0  0
   69.5820   23.5960   55.0803 H   0  0  0  0  0  0  0  0  0  0  0  0
   71.2129   23.1816   54.5037 H   0  0  0  0  0  0  0  0  0  0  0  0
   70.2555   17.8479   54.6490 H   0  0  0  0  0  0  0  0  0  0  0  0
   68.5719   14.6863   57.5137 H   0  0  0  0  0  0  0  0  0  0  0  0
   69.7896   12.5398   56.5939 H   0  0  0  0  0  0  0  0  0  0  0  0
   73.4030   14.3268   53.8962 H   0  0  0  0  0  0  0  0  0  0  0  0
   70.5975    9.8656   53.8067 H   0  0  0  0  0  0  0  0  0  0  0  0
   69.5994   11.2756   54.2392 H   0  0  0  0  0  0  0  0  0  0  0  0
   70.5757   10.4398   55.5017 H   0  0  0  0  0  0  0  0  0  0  0  0
   69.5806   22.0096   57.6820 H   0  0  0  0  0  0  0  0  0  0  0  0
  1  2  2  0
  1  3  1  0
  1  8  1  0
  2  6  1  0
  2  9  1  0
  3  4  1  0
  3  5  2  0
  6  7  1  0
  6 38  1  0
  7  8  2  0
  8 12  1  0
  9 28  1  0
  9 29  1  0
  9 30  1  0
 10 11  2  0
 10 12  1  0
 10 13  1  0
 12 31  1  0
 13 14  2  0
 13 16  1  0
 14 15  1  0
 14 32  1  0
 15 17  2  0
 15 33  1  0
 16 17  1  0
 17 18  1  0
 18 19  2  0
 18 22  1  0
 19 20  1  0
 19 34  1  0
 20 21  2  0
 20 24  1  0
 21 22  1  0
 22 23  1  0
 23 35  1  0
 23 36  1  0
 23 37  1  0
 24 25  1  0
 24 26  1  0
 24 27  1  0
M  CHG  3   3   1   4  -1   7   1
A    1
-0.1978593
A    2
0.29042873
A    3
0.7299354
A    4
-0.32997122
A    5
-0.36509788
A    6
-0.18637134
A    7
-0.031862065
A    8
0.45101652
A    9
-0.41250384
A   10
0.5710786
A   11
-0.41989046
A   12
-0.50888723
A   13
-0.13529862
A   14
-0.10650743
A   15
-0.1339585
A   16
0.08978056
A   17
-0.03630921
A   18
0.09577268
A   19
-0.28049698
A   20
-0.040023968
A   21
-0.270038
A   22
0.2482513
A   23
-0.2997087
A   24
0.71671265
A   25
-0.21125244
A   26
-0.20116948
A   27
-0.20881888
A   28
0.15907606
A   29
0.16576561
A   30
0.15311965
A   31
0.37474567
A   32
0.18555634
A   33
0.16931161
A   34
0.18710779
A   35
0.1262464
A   36
0.13770925
A   37
0.13569298
A   38
0.38871783
M  END
>  <Name>  (5) 
ligand_74

>  <IC50 (nM)>  (5) 
5000

>  <charge>  (5) 
0

$$$$
ligand_45
     RDKit          3D

 48 50  0  0  0  0  0  0  0  0999 V2000
   67.1955   21.1954   48.4043 C   0  0  0  0  0  0  0  0  0  0  0  0
   66.8806   20.8070   47.1010 C   0  0  0  0  0  0  0  0  0  0  0  0
   66.0168   21.5768   46.3101 C   0  0  0  0  0  0  0  0  0  0  0  0
   65.4581   22.7568   46.8134 C   0  0  0  0  0  0  0  0  0  0  0  0
   65.7843   23.1632   48.1110 C   0  0  0  0  0  0  0  0  0  0  0  0
   66.6407   22.3826   48.9002 C   0  0  0  0  0  0  0  0  0  0  0  0
   64.5151   23.5823   45.9997 C   0  0  0  0  0  0  0  0  0  0  0  0
   63.8932   22.9574   44.7753 C   0  0  0  0  0  0  0  0  0  0  0  0
   64.2454   24.7443   46.3031 O   0  0  0  0  0  0  0  0  0  0  0  0
   68.0162   20.4421   49.2666 N   0  0  0  0  0  0  0  0  0  0  0  0
   68.7434   19.2973   48.9694 C   0  0  0  0  0  0  0  0  0  0  0  0
   68.8726   18.8021   47.8501 O   0  0  0  0  0  0  0  0  0  0  0  0
   69.2999   18.5973   50.2008 C   0  0  0  0  0  0  0  0  0  0  0  0
   70.1621   19.7563   51.3055 S   0  0  0  0  0  0  0  0  0  0  0  0
   70.1126   18.8303   52.7893 C   0  0  0  0  0  0  0  0  0  0  0  0
   71.2144   18.4112   54.7324 C   0  0  0  0  0  0  0  0  0  0  0  0
   70.0737   17.5236   55.1117 C   0  0  0  0  0  0  0  0  0  0  0  0
   69.0883   17.3891   54.2097 C   0  0  0  0  0  0  0  0  0  0  0  0
   69.1156   18.0454   53.0100 N   0  0  0  0  0  0  0  0  0  0  0  0
   71.1508   19.0697   53.5700 N   0  0  0  0  0  0  0  0  0  0  0  0
   72.1595   18.5069   55.5173 O   0  0  0  0  0  0  0  0  0  0  0  0
   70.0688   16.8974   56.3860 C   0  0  0  0  0  0  0  0  0  0  0  0
   70.0127   16.3395   57.4061 N   0  0  0  0  0  0  0  0  0  0  0  0
   67.8582   16.5861   54.4268 C   0  0  0  0  0  0  0  0  0  0  0  0
   65.4295   16.4728   54.3556 C   0  0  0  0  0  0  0  0  0  0  0  0
   66.6101   17.2021   54.2376 C   0  0  0  0  0  0  0  0  0  0  0  0
   67.9019   15.2158   54.7231 C   0  0  0  0  0  0  0  0  0  0  0  0
   66.7196   14.4839   54.8627 C   0  0  0  0  0  0  0  0  0  0  0  0
   65.4883   15.1167   54.6688 C   0  0  0  0  0  0  0  0  0  0  0  0
   66.6374   13.1497   55.1588 O   0  0  0  0  0  0  0  0  0  0  0  0
   67.8344   12.5300   55.6176 C   0  0  0  0  0  0  0  0  0  0  0  0
   67.2804   19.8913   46.6763 H   0  0  0  0  0  0  0  0  0  0  0  0
   65.8036   21.2292   45.3027 H   0  0  0  0  0  0  0  0  0  0  0  0
   65.3691   24.0822   48.5200 H   0  0  0  0  0  0  0  0  0  0  0  0
   66.8642   22.7056   49.9154 H   0  0  0  0  0  0  0  0  0  0  0  0
   63.0479   23.5721   44.4506 H   0  0  0  0  0  0  0  0  0  0  0  0
   63.5045   21.9614   45.0040 H   0  0  0  0  0  0  0  0  0  0  0  0
   64.6232   22.9138   43.9640 H   0  0  0  0  0  0  0  0  0  0  0  0
   68.1377   20.7801   50.2188 H   0  0  0  0  0  0  0  0  0  0  0  0
   70.0024   17.8188   49.8856 H   0  0  0  0  0  0  0  0  0  0  0  0
   68.4437   18.1228   50.6897 H   0  0  0  0  0  0  0  0  0  0  0  0
   64.4731   16.9613   54.1951 H   0  0  0  0  0  0  0  0  0  0  0  0
   66.5650   18.2574   53.9708 H   0  0  0  0  0  0  0  0  0  0  0  0
   68.8709   14.7360   54.8125 H   0  0  0  0  0  0  0  0  0  0  0  0
   64.5691   14.5446   54.7610 H   0  0  0  0  0  0  0  0  0  0  0  0
   67.5833   11.5115   55.9307 H   0  0  0  0  0  0  0  0  0  0  0  0
   68.2484   13.0542   56.4859 H   0  0  0  0  0  0  0  0  0  0  0  0
   68.5704   12.4572   54.8104 H   0  0  0  0  0  0  0  0  0  0  0  0
  1  2  2  0
  1  6  1  0
  1 10  1  0
  2  3  1  0
  2 32  1  0
  3  4  2  0
  3 33  1  0
  4  5  1  0
  4  7  1  0
  5  6  2  0
  5 34  1  0
  6 35  1  0
  7  8  1  0
  7  9  2  0
  8 36  1  0
  8 37  1  0
  8 38  1  0
 10 11  1  0
 10 39  1  0
 11 12  2  0
 11 13  1  0
 13 14  1  0
 13 40  1  0
 13 41  1  0
 14 15  1  0
 15 19  2  0
 15 20  1  0
 16 17  1  0
 16 20  1  0
 16 21  2  0
 17 18  2  0
 17 22  1  0
 18 19  1  0
 18 24  1  0
 22 23  3  0
 24 26  1  0
 24 27  2  0
 25 26  2  0
 25 29  1  0
 25 42  1  0
 26 43  1  0
 27 28  1  0
 27 44  1  0
 28 29  2  0
 28 30  1  0
 29 45  1  0
 30 31  1  0
 31 46  1  0
 31 47  1  0
 31 48  1  0
M  CHG  1  20  -1
A    1
0.29268232
A    2
-0.22866969
A    3
-0.098009676
A    4
-0.061878763
A    5
-0.0995531
A    6
-0.23093864
A    7
0.49271694
A    8
-0.5051766
A    9
-0.5064207
A   10
-0.56316465
A   11
0.5696244
A   12
-0.5438623
A   13
-0.33060625
A   14
-0.051262923
A   15
0.41344607
A   16
0.59494466
A   17
-0.22919668
A   18
0.2404965
A   19
-0.48768285
A   20
-0.6209856
A   21
-0.5270703
A   22
0.26277125
A   23
-0.4328732
A   24
0.05294204
A   25
-0.08031753
A   26
-0.13027172
A   27
-0.28504848
A   28
0.29351127
A   29
-0.2518033
A   30
-0.21277611
A   31
-0.17336981
A   32
0.13763025
A   33
0.118464634
A   34
0.13865839
A   35
0.13938361
A   36
0.14272124
A   37
0.14194155
A   38
0.13359755
A   39
0.32612285
A   40
0.15493661
A   41
0.13150692
A   42
0.1306248
A   43
0.12649773
A   44
0.15364966
A   45
0.15790226
A   46
0.10669325
A   47
0.10066974
A   48
0.09680226
M  END
>  <Name>  (6) 
ligand_45

>  <IC50 (nM)>  (6) 
60000

>  <charge>  (6) 
-1

$$$$
ligand_122
     RDKit          3D

 50 54  0  0  0  0  0  0  0  0999 V2000
   74.5162   12.1298   59.0407 C   0  0  0  0  0  0  0  0  0  0  0  0
   74.4696   11.1642   58.0379 C   0  0  0  0  0  0  0  0  0  0  0  0
   73.5602   11.3151   57.0018 C   0  0  0  0  0  0  0  0  0  0  0  0
   72.6942   12.4157   56.9873 C   0  0  0  0  0  0  0  0  0  0  0  0
   72.7040   13.4045   58.0017 C   0  0  0  0  0  0  0  0  0  0  0  0
   73.6565   13.2617   59.0444 C   0  0  0  0  0  0  0  0  0  0  0  0
   71.6717   14.4582   57.9267 C   0  0  0  0  0  0  0  0  0  0  0  0
   71.1110   14.6949   56.6874 O   0  0  0  0  0  0  0  0  0  0  0  0
   70.1752   15.7130   56.7826 C   0  0  0  0  0  0  0  0  0  0  0  0
   70.0998   16.0513   58.1280 C   0  0  0  0  0  0  0  0  0  0  0  0
   71.0477   15.2756   58.8416 C   0  0  0  0  0  0  0  0  0  0  0  0
   69.4444   16.1901   55.6442 C   0  0  0  0  0  0  0  0  0  0  0  0
   69.2289   17.4807   55.3331 C   0  0  0  0  0  0  0  0  0  0  0  0
   69.7693   18.6813   56.0239 C   0  0  0  0  0  0  0  0  0  0  0  0
   69.5638   19.7063   55.0875 N   0  0  0  0  0  0  0  0  0  0  0  0
   68.8148   19.3308   53.9727 N   0  0  0  0  0  0  0  0  0  0  0  0
   68.5733   18.0496   54.1178 C   0  0  0  0  0  0  0  0  0  0  0  0
   70.2607   18.7243   57.1342 O   0  0  0  0  0  0  0  0  0  0  0  0
   70.0636   21.0289   55.1660 C   0  0  0  0  0  0  0  0  0  0  0  0
   69.8426   21.9311   54.1164 C   0  0  0  0  0  0  0  0  0  0  0  0
   70.3941   23.2138   54.1509 C   0  0  0  0  0  0  0  0  0  0  0  0
   71.1599   23.6233   55.2382 C   0  0  0  0  0  0  0  0  0  0  0  0
   71.3710   22.7536   56.2956 C   0  0  0  0  0  0  0  0  0  0  0  0
   70.8280   21.4675   56.2573 C   0  0  0  0  0  0  0  0  0  0  0  0
   67.7156   17.3178   53.1703 C   0  0  0  0  0  0  0  0  0  0  0  0
   73.8682   14.2444   60.1828 C   0  0  0  0  0  0  0  0  0  0  0  0
   74.1124   13.7305   61.3287 O   0  0  0  0  0  0  0  0  0  0  0  0
   73.8504   15.4870   59.9204 O   0  0  0  0  0  0  0  0  0  0  0  0
   67.7202   17.7149   51.8234 C   0  0  0  0  0  0  0  0  0  0  0  0
   66.8376   17.1349   50.9063 C   0  0  0  0  0  0  0  0  0  0  0  0
   65.9424   16.1580   51.3348 C   0  0  0  0  0  0  0  0  0  0  0  0
   65.9290   15.7633   52.6746 C   0  0  0  0  0  0  0  0  0  0  0  0
   66.8034   16.3490   53.5946 C   0  0  0  0  0  0  0  0  0  0  0  0
   75.2377   12.0260   59.8517 H   0  0  0  0  0  0  0  0  0  0  0  0
   75.1439   10.3131   58.0718 H   0  0  0  0  0  0  0  0  0  0  0  0
   73.5106   10.5785   56.2064 H   0  0  0  0  0  0  0  0  0  0  0  0
   71.9806   12.4954   56.1696 H   0  0  0  0  0  0  0  0  0  0  0  0
   69.4521   16.8019   58.5579 H   0  0  0  0  0  0  0  0  0  0  0  0
   71.2634   15.3153   59.9022 H   0  0  0  0  0  0  0  0  0  0  0  0
   69.1308   15.4119   54.9567 H   0  0  0  0  0  0  0  0  0  0  0  0
   69.2553   21.6422   53.2475 H   0  0  0  0  0  0  0  0  0  0  0  0
   70.2322   23.8905   53.3193 H   0  0  0  0  0  0  0  0  0  0  0  0
   71.5918   24.6195   55.2568 H   0  0  0  0  0  0  0  0  0  0  0  0
   71.9755   23.0420   57.1524 H   0  0  0  0  0  0  0  0  0  0  0  0
   71.0407   20.8234   57.1052 H   0  0  0  0  0  0  0  0  0  0  0  0
   68.4019   18.4934   51.4845 H   0  0  0  0  0  0  0  0  0  0  0  0
   66.8446   17.4494   49.8652 H   0  0  0  0  0  0  0  0  0  0  0  0
   65.2512   15.7086   50.6265 H   0  0  0  0  0  0  0  0  0  0  0  0
   65.2261   15.0052   53.0111 H   0  0  0  0  0  0  0  0  0  0  0  0
   66.7328   16.0621   54.6409 H   0  0  0  0  0  0  0  0  0  0  0  0
  1  2  2  0
  1  6  1  0
  1 34  1  0
  2  3  1  0
  2 35  1  0
  3  4  2  0
  3 36  1  0
  4  5  1  0
  4 37  1  0
  5  6  2  0
  5  7  1  0
  6 26  1  0
  7  8  1  0
  7 11  2  0
  8  9  1  0
  9 10  2  0
  9 12  1  0
 10 11  1  0
 10 38  1  0
 11 39  1  0
 12 13  2  0
 12 40  1  0
 13 14  1  0
 13 17  1  0
 14 15  1  0
 14 18  2  0
 15 16  1  0
 15 19  1  0
 16 17  2  0
 17 25  1  0
 19 20  2  0
 19 24  1  0
 20 21  1  0
 20 41  1  0
 21 22  2  0
 21 42  1  0
 22 23  1  0
 22 43  1  0
 23 24  2  0
 23 44  1  0
 24 45  1  0
 25 29  2  0
 25 33  1  0
 26 27  2  0
 26 28  1  0
 29 30  1  0
 29 46  1  0
 30 31  2  0
 30 47  1  0
 31 32  1  0
 31 48  1  0
 32 33  2  0
 32 49  1  0
 33 50  1  0
M  CHG  1  28  -1
A    1
-0.115333185
A    2
-0.11602774
A    3
-0.089420944
A    4
-0.14614731
A    5
-0.007925124
A    6
-0.092881165
A    7
0.20694521
A    8
-0.2176838
A    9
0.24641903
A   10
-0.24653387
A   11
-0.23086156
A   12
-0.26302356
A   13
-0.10743134
A   14
0.42586324
A   15
-0.040396247
A   16
-0.32406148
A   17
0.15765801
A   18
-0.51660025
A   19
0.16153689
A   20
-0.19770902
A   21
-0.09713316
A   22
-0.10459794
A   23
-0.09289478
A   24
-0.20623684
A   25
0.038147856
A   26
0.549061
A   27
-0.5904423
A   28
-0.58940595
A   29
-0.124387495
A   30
-0.10485097
A   31
-0.11175122
A   32
-0.10119367
A   33
-0.13342175
A   34
0.14059548
A   35
0.12121555
A   36
0.11771902
A   37
0.1281603
A   38
0.14651954
A   39
0.15534154
A   40
0.13337305
A   41
0.13639839
A   42
0.11488537
A   43
0.12479204
A   44
0.12804443
A   45
0.13178575
A   46
0.11620327
A   47
0.12154451
A   48
0.12214248
A   49
0.10914506
A   50
0.1348557
M  END
>  <Name>  (7) 
ligand_122

>  <IC50 (nM)>  (7) 
41200

>  <charge>  (7) 
0

$$$$
ligand_121
     RDKit          3D

 50 54  0  0  0  0  0  0  0  0999 V2000
   70.4256   20.7149   55.4325 C   0  0  0  0  0  0  0  0  0  0  0  0
   69.3878   21.4033   56.0575 C   0  0  0  0  0  0  0  0  0  0  0  0
   68.2811   21.8033   55.3095 C   0  0  0  0  0  0  0  0  0  0  0  0
   68.2133   21.5145   53.9425 C   0  0  0  0  0  0  0  0  0  0  0  0
   69.2471   20.8218   53.2944 C   0  0  0  0  0  0  0  0  0  0  0  0
   70.3544   20.4261   54.0632 C   0  0  0  0  0  0  0  0  0  0  0  0
   69.1669   20.5203   51.8632 C   0  0  0  0  0  0  0  0  0  0  0  0
   68.0670   20.9933   51.2061 O   0  0  0  0  0  0  0  0  0  0  0  0
   68.1275   20.6321   49.8651 C   0  0  0  0  0  0  0  0  0  0  0  0
   69.2964   19.9000   49.7159 C   0  0  0  0  0  0  0  0  0  0  0  0
   69.9591   19.8406   50.9694 C   0  0  0  0  0  0  0  0  0  0  0  0
   67.0732   21.0175   48.9868 C   0  0  0  0  0  0  0  0  0  0  0  0
   66.9665   20.8889   47.6552 C   0  0  0  0  0  0  0  0  0  0  0  0
   67.8529   20.3437   46.5850 C   0  0  0  0  0  0  0  0  0  0  0  0
   67.0930   20.5179   45.4140 N   0  0  0  0  0  0  0  0  0  0  0  0
   65.8484   21.1288   45.6264 N   0  0  0  0  0  0  0  0  0  0  0  0
   65.7662   21.3456   46.9076 C   0  0  0  0  0  0  0  0  0  0  0  0
   68.9642   19.8860   46.7593 O   0  0  0  0  0  0  0  0  0  0  0  0
   67.4398   20.1550   44.0803 C   0  0  0  0  0  0  0  0  0  0  0  0
   66.5373   20.4455   43.0424 C   0  0  0  0  0  0  0  0  0  0  0  0
   66.8219   20.1148   41.7191 C   0  0  0  0  0  0  0  0  0  0  0  0
   68.0189   19.4794   41.4063 C   0  0  0  0  0  0  0  0  0  0  0  0
   68.9536   19.1618   42.4027 C   0  0  0  0  0  0  0  0  0  0  0  0
   68.6468   19.5109   43.7414 C   0  0  0  0  0  0  0  0  0  0  0  0
   64.6125   21.9745   47.5558 C   0  0  0  0  0  0  0  0  0  0  0  0
   64.5633   23.3670   47.6750 C   0  0  0  0  0  0  0  0  0  0  0  0
   63.4896   23.9608   48.3387 C   0  0  0  0  0  0  0  0  0  0  0  0
   62.4744   23.1626   48.8691 C   0  0  0  0  0  0  0  0  0  0  0  0
   62.5222   21.7731   48.7428 C   0  0  0  0  0  0  0  0  0  0  0  0
   63.5937   21.1731   48.0815 C   0  0  0  0  0  0  0  0  0  0  0  0
   70.2544   18.4590   42.0189 C   0  0  0  0  0  0  0  0  0  0  0  0
   70.4390   18.1844   40.7841 O   0  0  0  0  0  0  0  0  0  0  0  0
   71.0728   18.1904   42.9557 O   0  0  0  0  0  0  0  0  0  0  0  0
   71.2924   20.4015   56.0083 H   0  0  0  0  0  0  0  0  0  0  0  0
   69.4449   21.6258   57.1220 H   0  0  0  0  0  0  0  0  0  0  0  0
   67.4642   22.3415   55.7823 H   0  0  0  0  0  0  0  0  0  0  0  0
   67.3422   21.8334   53.3726 H   0  0  0  0  0  0  0  0  0  0  0  0
   71.1783   19.8880   53.5964 H   0  0  0  0  0  0  0  0  0  0  0  0
   69.6627   19.4384   48.8114 H   0  0  0  0  0  0  0  0  0  0  0  0
   70.8986   19.3449   51.1671 H   0  0  0  0  0  0  0  0  0  0  0  0
   66.2531   21.4886   49.5203 H   0  0  0  0  0  0  0  0  0  0  0  0
   65.5929   20.9391   43.2534 H   0  0  0  0  0  0  0  0  0  0  0  0
   66.1135   20.3509   40.9322 H   0  0  0  0  0  0  0  0  0  0  0  0
   68.2408   19.2204   40.3729 H   0  0  0  0  0  0  0  0  0  0  0  0
   69.3833   19.2588   44.5030 H   0  0  0  0  0  0  0  0  0  0  0  0
   65.3488   23.9842   47.2449 H   0  0  0  0  0  0  0  0  0  0  0  0
   63.4351   25.0429   48.4412 H   0  0  0  0  0  0  0  0  0  0  0  0
   61.6341   23.6281   49.3778 H   0  0  0  0  0  0  0  0  0  0  0  0
   61.7195   21.1650   49.1554 H   0  0  0  0  0  0  0  0  0  0  0  0
   63.6287   20.0924   47.9650 H   0  0  0  0  0  0  0  0  0  0  0  0
  1  2  2  0
  1  6  1  0
  1 34  1  0
  2  3  1  0
  2 35  1  0
  3  4  2  0
  3 36  1  0
  4  5  1  0
  4 37  1  0
  5  6  2  0
  5  7  1  0
  6 38  1  0
  7  8  1  0
  7 11  2  0
  8  9  1  0
  9 10  2  0
  9 12  1  0
 10 11  1  0
 10 39  1  0
 11 40  1  0
 12 13  2  0
 12 41  1  0
 13 14  1  0
 13 17  1  0
 14 15  1  0
 14 18  2  0
 15 16  1  0
 15 19  1  0
 16 17  2  0
 17 25  1  0
 19 20  2  0
 19 24  1  0
 20 21  1  0
 20 42  1  0
 21 22  2  0
 21 43  1  0
 22 23  1  0
 22 44  1  0
 23 24  2  0
 23 31  1  0
 24 45  1  0
 25 26  2  0
 25 30  1  0
 26 27  1  0
 26 46  1  0
 27 28  2  0
 27 47  1  0
 28 29  1  0
 28 48  1  0
 29 30  2  0
 29 49  1  0
 30 50  1  0
 31 32  1  0
 31 33  2  0
M  CHG  1  32  -1
A    1
-0.0957647
A    2
-0.10533363
A    3
-0.105964296
A    4
-0.1383785
A    5
0.020777343
A    6
-0.13577974
A    7
0.17887487
A    8
-0.21698725
A    9
0.22469047
A   10
-0.25437924
A   11
-0.26008677
A   12
-0.20690422
A   13
-0.112279475
A   14
0.43484592
A   15
-0.046440586
A   16
-0.29547566
A   17
0.16862665
A   18
-0.5237449
A   19
0.17144729
A   20
-0.201446
A   21
-0.09247023
A   22
-0.13131842
A   23
-0.03845903
A   24
-0.24405038
A   25
0.043622088
A   26
-0.14520583
A   27
-0.10321814
A   28
-0.096241266
A   29
-0.1052221
A   30
-0.1415522
A   31
0.54198223
A   32
-0.631777
A   33
-0.5165181
A   34
0.1186201
A   35
0.12034661
A   36
0.12016436
A   37
0.12232381
A   38
0.11694986
A   39
0.16066241
A   40
0.15415832
A   41
0.16037339
A   42
0.12994026
A   43
0.1288473
A   44
0.1250481
A   45
0.123829074
A   46
0.115032986
A   47
0.11373408
A   48
0.110189565
A   49
0.123499535
A   50
0.116411135
M  END
>  <Name>  (8) 
ligand_121

>  <IC50 (nM)>  (8) 
6400

>  <charge>  (8) 
-1

$$$$
ligand_82
     RDKit          3D

 50 53  0  0  0  0  0  0  0  0999 V2000
   71.0957   18.1279   43.5787 C   0  0  0  0  0  0  0  0  0  0  0  0
   71.2390   19.6402   43.7227 C   0  0  0  0  0  0  0  0  0  0  0  0
   70.1399   20.2300   44.6046 C   0  0  0  0  0  0  0  0  0  0  0  0
   68.7429   19.8421   44.0967 C   0  0  0  0  0  0  0  0  0  0  0  0
   68.6072   18.3181   43.9572 C   0  0  0  0  0  0  0  0  0  0  0  0
   69.7097   17.7396   43.0728 C   0  0  0  0  0  0  0  0  0  0  0  0
   67.6599   20.4008   44.9932 C   0  0  0  0  0  0  0  0  0  0  0  0
   66.6595   20.5279   47.0504 C   0  0  0  0  0  0  0  0  0  0  0  0
   67.6358   20.0151   46.2759 N   0  0  0  0  0  0  0  0  0  0  0  0
   66.7782   21.2469   44.4407 N   0  0  0  0  0  0  0  0  0  0  0  0
   65.6852   21.4221   46.5737 C   0  0  0  0  0  0  0  0  0  0  0  0
   65.8128   21.7458   45.2187 C   0  0  0  0  0  0  0  0  0  0  0  0
   64.8975   22.6239   44.6486 C   0  0  0  0  0  0  0  0  0  0  0  0
   63.8564   23.1936   45.3859 C   0  0  0  0  0  0  0  0  0  0  0  0
   63.7201   22.8815   46.7304 C   0  0  0  0  0  0  0  0  0  0  0  0
   64.6249   22.0026   47.3240 C   0  0  0  0  0  0  0  0  0  0  0  0
   66.6528   19.9585   48.7533 S   0  0  0  0  0  0  0  0  0  0  0  0
   68.3090   19.2004   48.8582 C   0  0  0  0  0  0  0  0  0  0  0  0
   68.5113   18.6637   50.2636 C   0  0  0  0  0  0  0  0  0  0  0  0
   69.1090   19.2932   51.1327 O   0  0  0  0  0  0  0  0  0  0  0  0
   67.9603   17.4189   50.4751 N   0  0  0  0  0  0  0  0  0  0  0  0
   67.9206   16.8021   51.7821 C   0  0  0  0  0  0  0  0  0  0  0  0
   66.5619   17.0335   52.3307 C   0  0  0  0  0  0  0  0  0  0  0  0
   64.6571   17.6850   53.3057 C   0  0  0  0  0  0  0  0  0  0  0  0
   66.0413   17.9618   53.2081 C   0  0  0  0  0  0  0  0  0  0  0  0
   64.4228   16.6010   52.4930 C   0  0  0  0  0  0  0  0  0  0  0  0
   65.5702   16.2088   51.8812 O   0  0  0  0  0  0  0  0  0  0  0  0
   71.8591   17.7495   42.8898 H   0  0  0  0  0  0  0  0  0  0  0  0
   71.2763   17.6504   44.5496 H   0  0  0  0  0  0  0  0  0  0  0  0
   72.2206   19.8784   44.1480 H   0  0  0  0  0  0  0  0  0  0  0  0
   71.1991   20.1066   42.7308 H   0  0  0  0  0  0  0  0  0  0  0  0
   70.2419   21.3220   44.6313 H   0  0  0  0  0  0  0  0  0  0  0  0
   70.2840   19.8786   45.6349 H   0  0  0  0  0  0  0  0  0  0  0  0
   68.6145   20.2844   43.0987 H   0  0  0  0  0  0  0  0  0  0  0  0
   67.6283   18.0634   43.5325 H   0  0  0  0  0  0  0  0  0  0  0  0
   68.6531   17.8387   44.9440 H   0  0  0  0  0  0  0  0  0  0  0  0
   69.6219   16.6478   43.0405 H   0  0  0  0  0  0  0  0  0  0  0  0
   69.5806   18.1019   42.0454 H   0  0  0  0  0  0  0  0  0  0  0  0
   64.9969   22.8763   43.5937 H   0  0  0  0  0  0  0  0  0  0  0  0
   63.1613   23.8779   44.9038 H   0  0  0  0  0  0  0  0  0  0  0  0
   62.9164   23.3187   47.3178 H   0  0  0  0  0  0  0  0  0  0  0  0
   64.5022   21.7715   48.3802 H   0  0  0  0  0  0  0  0  0  0  0  0
   68.4024   18.3763   48.1432 H   0  0  0  0  0  0  0  0  0  0  0  0
   69.0860   19.9428   48.6500 H   0  0  0  0  0  0  0  0  0  0  0  0
   67.3863   17.0031   49.7529 H   0  0  0  0  0  0  0  0  0  0  0  0
   68.1130   15.7327   51.6528 H   0  0  0  0  0  0  0  0  0  0  0  0
   68.6898   17.2233   52.4365 H   0  0  0  0  0  0  0  0  0  0  0  0
   63.9216   18.2044   53.9031 H   0  0  0  0  0  0  0  0  0  0  0  0
   66.5979   18.7425   53.7092 H   0  0  0  0  0  0  0  0  0  0  0  0
   63.5420   16.0209   52.2538 H   0  0  0  0  0  0  0  0  0  0  0  0
  1  2  1  0
  1  6  1  0
  1 28  1  0
  1 29  1  0
  2  3  1  0
  2 30  1  0
  2 31  1  0
  3  4  1  0
  3 32  1  0
  3 33  1  0
  4  5  1  0
  4  7  1  0
  4 34  1  0
  5  6  1  0
  5 35  1  0
  5 36  1  0
  6 37  1  0
  6 38  1  0
  7  9  2  0
  7 10  1  0
  8  9  1  0
  8 11  2  0
  8 17  1  0
 10 12  2  0
 11 12  1  0
 11 16  1  0
 12 13  1  0
 13 14  2  0
 13 39  1  0
 14 15  1  0
 14 40  1  0
 15 16  2  0
 15 41  1  0
 16 42  1  0
 17 18  1  0
 18 19  1  0
 18 43  1  0
 18 44  1  0
 19 20  2  0
 19 21  1  0
 21 22  1  0
 21 45  1  0
 22 23  1  0
 22 46  1  0
 22 47  1  0
 23 25  2  0
 23 27  1  0
 24 25  1  0
 24 26  2  0
 24 48  1  0
 25 49  1  0
 26 27  1  0
 26 50  1  0
A    1
-0.12706758
A    2
-0.1282008
A    3
-0.13899101
A    4
-0.0909976
A    5
-0.1498414
A    6
-0.11498618
A    7
0.40778238
A    8
0.19949225
A    9
-0.4425773
A   10
-0.5050631
A   11
-0.08170665
A   12
0.25345525
A   13
-0.1936098
A   14
-0.0740313
A   15
-0.10334728
A   16
-0.10742009
A   17
-0.046486165
A   18
-0.31317547
A   19
0.5750422
A   20
-0.58499813
A   21
-0.4279307
A   22
-0.09712473
A   23
0.24464846
A   24
-0.16419338
A   25
-0.27115718
A   26
0.047692224
A   27
-0.18726425
A   28
0.07174139
A   29
0.07393813
A   30
0.07374277
A   31
0.075038135
A   32
0.07164679
A   33
0.07038804
A   34
0.08571254
A   35
0.08366162
A   36
0.080693476
A   37
0.06758754
A   38
0.073176496
A   39
0.13296916
A   40
0.1366691
A   41
0.12916051
A   42
0.12981129
A   43
0.14291792
A   44
0.14216495
A   45
0.32244888
A   46
0.087112434
A   47
0.095852464
A   48
0.16609338
A   49
0.18049183
A   50
0.12903877
M  END
>  <Name>  (9) 
ligand_82

>  <IC50 (nM)>  (9) 
18200

>  <charge>  (9) 
0

$$$$
ligand_5
     RDKit          3D

 56 58  0  0  0  0  0  0  0  0999 V2000
   67.3504   20.5459   48.9798 C   0  0  0  0  0  0  0  0  0  0  0  0
   67.2099   19.3575   49.2584 O   0  0  0  0  0  0  0  0  0  0  0  0
   68.5462   21.2055   49.1459 N   0  0  0  0  0  0  0  0  0  0  0  0
   69.7421   20.5035   49.6123 C   0  0  0  0  0  0  0  0  0  0  0  0
   71.0307   21.2827   49.3128 C   0  0  0  0  0  0  0  0  0  0  0  0
   71.3829   21.2209   47.8445 C   0  0  0  0  0  0  0  0  0  0  0  0
   71.5308   22.2485   45.6580 C   0  0  0  0  0  0  0  0  0  0  0  0
   71.2352   22.3398   47.0187 C   0  0  0  0  0  0  0  0  0  0  0  0
   71.8365   20.0141   47.2899 C   0  0  0  0  0  0  0  0  0  0  0  0
   72.1172   19.9255   45.9297 C   0  0  0  0  0  0  0  0  0  0  0  0
   71.9724   21.0443   45.1140 C   0  0  0  0  0  0  0  0  0  0  0  0
   69.6088   20.2750   51.1256 C   0  0  0  0  0  0  0  0  0  0  0  0
   69.9747   21.1032   51.9546 O   0  0  0  0  0  0  0  0  0  0  0  0
   68.8988   19.1200   51.4066 N   0  0  0  0  0  0  0  0  0  0  0  0
   68.7679   18.4964   52.6584 C   0  0  0  0  0  0  0  0  0  0  0  0
   69.7657   18.4332   53.6475 C   0  0  0  0  0  0  0  0  0  0  0  0
   67.5409   17.8488   52.8787 C   0  0  0  0  0  0  0  0  0  0  0  0
   67.2813   17.1988   54.0863 C   0  0  0  0  0  0  0  0  0  0  0  0
   68.2659   17.1842   55.0769 C   0  0  0  0  0  0  0  0  0  0  0  0
   69.5068   17.7927   54.8637 C   0  0  0  0  0  0  0  0  0  0  0  0
   71.4084   18.9205   53.3918 Cl  0  0  0  0  0  0  0  0  0  0  0  0
   68.0158   16.4894   56.3411 N   0  0  0  0  0  0  0  0  0  0  0  0
   68.7805   16.7203   57.2891 O   0  0  0  0  0  0  0  0  0  0  0  0
   67.0557   15.7060   56.3958 O   0  0  0  0  0  0  0  0  0  0  0  0
   66.2196   21.3389   48.4377 C   0  0  0  0  0  0  0  0  0  0  0  0
   66.0942   22.7099   48.6596 C   0  0  0  0  0  0  0  0  0  0  0  0
   65.0070   23.4093   48.1181 C   0  0  0  0  0  0  0  0  0  0  0  0
   64.0076   22.7739   47.3578 C   0  0  0  0  0  0  0  0  0  0  0  0
   64.1597   21.3877   47.1714 C   0  0  0  0  0  0  0  0  0  0  0  0
   65.2415   20.6760   47.7009 C   0  0  0  0  0  0  0  0  0  0  0  0
   62.9300   23.4714   46.8299 N   0  0  0  0  0  0  0  0  0  0  0  0
   62.7580   24.9025   47.0626 C   0  0  0  0  0  0  0  0  0  0  0  0
   61.8715   22.7854   46.0964 C   0  0  0  0  0  0  0  0  0  0  0  0
   68.6440   22.1698   48.8612 H   0  0  0  0  0  0  0  0  0  0  0  0
   69.7700   19.5209   49.1232 H   0  0  0  0  0  0  0  0  0  0  0  0
   70.9351   22.3281   49.6342 H   0  0  0  0  0  0  0  0  0  0  0  0
   71.8719   20.8673   49.8836 H   0  0  0  0  0  0  0  0  0  0  0  0
   71.4210   23.1225   45.0226 H   0  0  0  0  0  0  0  0  0  0  0  0
   70.9042   23.2986   47.4117 H   0  0  0  0  0  0  0  0  0  0  0  0
   71.9808   19.1350   47.9192 H   0  0  0  0  0  0  0  0  0  0  0  0
   72.4715   18.9911   45.5016 H   0  0  0  0  0  0  0  0  0  0  0  0
   72.2251   20.9768   44.0585 H   0  0  0  0  0  0  0  0  0  0  0  0
   68.2377   18.8485   50.6723 H   0  0  0  0  0  0  0  0  0  0  0  0
   66.7623   17.8664   52.1167 H   0  0  0  0  0  0  0  0  0  0  0  0
   66.3170   16.7178   54.2334 H   0  0  0  0  0  0  0  0  0  0  0  0
   70.2902   17.7414   55.6170 H   0  0  0  0  0  0  0  0  0  0  0  0
   66.8044   23.2414   49.2864 H   0  0  0  0  0  0  0  0  0  0  0  0
   64.9547   24.4791   48.3080 H   0  0  0  0  0  0  0  0  0  0  0  0
   63.4312   20.8212   46.5978 H   0  0  0  0  0  0  0  0  0  0  0  0
   65.3128   19.6019   47.5426 H   0  0  0  0  0  0  0  0  0  0  0  0
   61.8682   25.2971   46.5602 H   0  0  0  0  0  0  0  0  0  0  0  0
   63.6134   25.4659   46.6737 H   0  0  0  0  0  0  0  0  0  0  0  0
   62.6410   25.1102   48.1318 H   0  0  0  0  0  0  0  0  0  0  0  0
   61.0981   23.4779   45.7465 H   0  0  0  0  0  0  0  0  0  0  0  0
   61.3727   22.0466   46.7333 H   0  0  0  0  0  0  0  0  0  0  0  0
   62.2726   22.2880   45.2064 H   0  0  0  0  0  0  0  0  0  0  0  0
  1  2  2  0
  1  3  1  0
  1 25  1  0
  3  4  1  0
  3 34  1  0
  4  5  1  0
  4 12  1  0
  4 35  1  0
  5  6  1  0
  5 36  1  0
  5 37  1  0
  6  8  1  0
  6  9  2  0
  7  8  2  0
  7 11  1  0
  7 38  1  0
  8 39  1  0
  9 10  1  0
  9 40  1  0
 10 11  2  0
 10 41  1  0
 11 42  1  0
 12 13  2  0
 12 14  1  0
 14 15  1  0
 14 43  1  0
 15 16  2  0
 15 17  1  0
 16 20  1  0
 16 21  1  0
 17 18  2  0
 17 44  1  0
 18 19  1  0
 18 45  1  0
 19 20  2  0
 19 22  1  0
 20 46  1  0
 22 23  2  0
 22 24  1  0
 25 26  2  0
 25 30  1  0
 26 27  1  0
 26 47  1  0
 27 28  2  0
 27 48  1  0
 28 29  1  0
 28 31  1  0
 29 30  2  0
 29 49  1  0
 30 50  1  0
 31 32  1  0
 31 33  1  0
 32 51  1  0
 32 52  1  0
 32 53  1  0
 33 54  1  0
 33 55  1  0
 33 56  1  0
M  CHG  2  22   1  24  -1
A    1
0.5326263
A    2
-0.54141754
A    3
-0.4623409
A    4
0.041104466
A    5
-0.26173317
A    6
0.10979263
A    7
-0.090341315
A    8
-0.15919377
A    9
-0.12532169
A   10
-0.09565653
A   11
-0.09037771
A   12
0.5138306
A   13
-0.47079688
A   14
-0.54521585
A   15
0.21744917
A   16
0.04286555
A   17
-0.23350577
A   18
-0.119329475
A   19
0.03700871
A   20
-0.22155395
A   21
-0.064699195
A   22
0.60162866
A   23
-0.36321822
A   24
-0.3552785
A   25
-0.06566611
A   26
-0.09398958
A   27
-0.21882297
A   28
0.22382016
A   29
-0.2213954
A   30
-0.107919894
A   31
-0.07107987
A   32
-0.26508114
A   33
-0.29814893
A   34
0.2970295
A   35
0.08152443
A   36
0.09778955
A   37
0.10244052
A   38
0.12696953
A   39
0.13858254
A   40
0.13235976
A   41
0.12505552
A   42
0.12847237
A   43
0.32095155
A   44
0.16438006
A   45
0.1495787
A   46
0.17346087
A   47
0.128099
A   48
0.14681149
A   49
0.1422911
A   50
0.14221966
A   51
0.09991696
A   52
0.111105725
A   53
0.111126326
A   54
0.10403576
A   55
0.11019063
A   56
0.08756658
M  END
>  <Name>  (10) 
ligand_5

>  <IC50 (nM)>  (10) 
60

>  <charge>  (10) 
0

$$$$
ligand_126
     RDKit          3D

 51 55  0  0  0  0  0  0  0  0999 V2000
   71.5326   14.7779   60.1832 C   0  0  0  0  0  0  0  0  0  0  0  0
   72.8416   14.5696   60.6152 C   0  0  0  0  0  0  0  0  0  0  0  0
   73.7596   13.9690   59.7605 C   0  0  0  0  0  0  0  0  0  0  0  0
   73.3733   13.5948   58.4707 C   0  0  0  0  0  0  0  0  0  0  0  0
   72.0612   13.8139   58.0111 C   0  0  0  0  0  0  0  0  0  0  0  0
   71.1192   14.3844   58.8945 C   0  0  0  0  0  0  0  0  0  0  0  0
   71.7293   13.4480   56.6397 C   0  0  0  0  0  0  0  0  0  0  0  0
   70.8464   14.2622   56.0156 O   0  0  0  0  0  0  0  0  0  0  0  0
   70.5051   13.7212   54.8071 C   0  0  0  0  0  0  0  0  0  0  0  0
   71.2988   12.6000   54.6130 C   0  0  0  0  0  0  0  0  0  0  0  0
   72.1031   12.4449   55.7741 C   0  0  0  0  0  0  0  0  0  0  0  0
   69.4118   14.2223   54.0615 C   0  0  0  0  0  0  0  0  0  0  0  0
   69.1588   15.5331   53.9757 C   0  0  0  0  0  0  0  0  0  0  0  0
   70.0414   16.6914   54.2655 C   0  0  0  0  0  0  0  0  0  0  0  0
   69.1786   17.7876   54.0676 N   0  0  0  0  0  0  0  0  0  0  0  0
   67.9116   17.4454   53.5865 N   0  0  0  0  0  0  0  0  0  0  0  0
   67.8818   16.1408   53.5610 C   0  0  0  0  0  0  0  0  0  0  0  0
   71.2404   16.6648   54.4790 O   0  0  0  0  0  0  0  0  0  0  0  0
   69.4521   19.1501   54.3378 C   0  0  0  0  0  0  0  0  0  0  0  0
   70.6662   19.5647   54.9028 C   0  0  0  0  0  0  0  0  0  0  0  0
   70.9053   20.9134   55.1954 C   0  0  0  0  0  0  0  0  0  0  0  0
   69.9269   21.8715   54.9325 C   0  0  0  0  0  0  0  0  0  0  0  0
   68.7102   21.4733   54.3778 C   0  0  0  0  0  0  0  0  0  0  0  0
   68.4779   20.1265   54.0817 C   0  0  0  0  0  0  0  0  0  0  0  0
   66.6948   15.3604   53.2179 C   0  0  0  0  0  0  0  0  0  0  0  0
   69.6605   14.5514   58.5421 C   0  0  0  0  0  0  0  0  0  0  0  0
   69.1806   15.7275   58.6073 O   0  0  0  0  0  0  0  0  0  0  0  0
   69.0045   13.4844   58.2982 O   0  0  0  0  0  0  0  0  0  0  0  0
   66.0872   14.5733   54.2025 C   0  0  0  0  0  0  0  0  0  0  0  0
   64.9526   13.8338   53.8803 C   0  0  0  0  0  0  0  0  0  0  0  0
   64.4307   13.8895   52.5861 C   0  0  0  0  0  0  0  0  0  0  0  0
   65.0343   14.6836   51.6087 C   0  0  0  0  0  0  0  0  0  0  0  0
   66.1670   15.4318   51.9258 C   0  0  0  0  0  0  0  0  0  0  0  0
   70.1676   23.2544   55.2140 C   0  0  0  0  0  0  0  0  0  0  0  0
   70.3557   24.3895   55.3917 N   0  0  0  0  0  0  0  0  0  0  0  0
   70.8032   15.2524   60.8381 H   0  0  0  0  0  0  0  0  0  0  0  0
   73.1351   14.8662   61.6176 H   0  0  0  0  0  0  0  0  0  0  0  0
   74.7769   13.7891   60.0932 H   0  0  0  0  0  0  0  0  0  0  0  0
   74.1086   13.1305   57.8178 H   0  0  0  0  0  0  0  0  0  0  0  0
   71.2611   11.9314   53.7642 H   0  0  0  0  0  0  0  0  0  0  0  0
   72.8014   11.6499   55.9889 H   0  0  0  0  0  0  0  0  0  0  0  0
   68.6823   13.4915   53.7395 H   0  0  0  0  0  0  0  0  0  0  0  0
   71.4454   18.8489   55.1535 H   0  0  0  0  0  0  0  0  0  0  0  0
   71.8577   21.1954   55.6399 H   0  0  0  0  0  0  0  0  0  0  0  0
   67.9285   22.2010   54.1764 H   0  0  0  0  0  0  0  0  0  0  0  0
   67.5153   19.8453   53.6591 H   0  0  0  0  0  0  0  0  0  0  0  0
   66.4867   14.5519   55.2176 H   0  0  0  0  0  0  0  0  0  0  0  0
   64.4734   13.2112   54.6344 H   0  0  0  0  0  0  0  0  0  0  0  0
   63.5462   13.3072   52.3404 H   0  0  0  0  0  0  0  0  0  0  0  0
   64.6153   14.7103   50.6055 H   0  0  0  0  0  0  0  0  0  0  0  0
   66.6394   16.0628   51.1783 H   0  0  0  0  0  0  0  0  0  0  0  0
  1  2  2  0
  1  6  1  0
  1 36  1  0
  2  3  1  0
  2 37  1  0
  3  4  2  0
  3 38  1  0
  4  5  1  0
  4 39  1  0
  5  6  2  0
  5  7  1  0
  6 26  1  0
  7  8  1  0
  7 11  2  0
  8  9  1  0
  9 10  2  0
  9 12  1  0
 10 11  1  0
 10 40  1  0
 11 41  1  0
 12 13  2  0
 12 42  1  0
 13 14  1  0
 13 17  1  0
 14 15  1  0
 14 18  2  0
 15 16  1  0
 15 19  1  0
 16 17  2  0
 17 25  1  0
 19 20  2  0
 19 24  1  0
 20 21  1  0
 20 43  1  0
 21 22  2  0
 21 44  1  0
 22 23  1  0
 22 34  1  0
 23 24  2  0
 23 45  1  0
 24 46  1  0
 25 29  2  0
 25 33  1  0
 26 27  2  0
 26 28  1  0
 29 30  1  0
 29 47  1  0
 30 31  2  0
 30 48  1  0
 31 32  1  0
 31 49  1  0
 32 33  2  0
 32 50  1  0
 33 51  1  0
 34 35  3  0
M  CHG  1  28  -1
A    1
-0.12760255
A    2
-0.1016236
A    3
-0.09560327
A    4
-0.13403569
A    5
-0.016529288
A    6
-0.084585555
A    7
0.20457053
A    8
-0.21634631
A    9
0.26536635
A   10
-0.21994215
A   11
-0.23229101
A   12
-0.22654513
A   13
-0.11374664
A   14
0.42642406
A   15
-0.038745455
A   16
-0.3052452
A   17
0.15434678
A   18
-0.53610885
A   19
0.17505436
A   20
-0.21091303
A   21
-0.10975671
A   22
0.03325016
A   23
-0.10245045
A   24
-0.20816958
A   25
0.035291746
A   26
0.56248623
A   27
-0.5415415
A   28
-0.55925417
A   29
-0.14244998
A   30
-0.10092378
A   31
-0.1079356
A   32
-0.09903055
A   33
-0.123084374
A   34
0.2557764
A   35
-0.4879967
A   36
0.12806863
A   37
0.12599498
A   38
0.12975362
A   39
0.12757535
A   40
0.16204722
A   41
0.16208377
A   42
0.12583299
A   43
0.14093901
A   44
0.14598632
A   45
0.12869294
A   46
0.13622265
A   47
0.12440689
A   48
0.120436475
A   49
0.1206424
A   50
0.1220826
A   51
0.1291245
M  END
>  <Name>  (11) 
ligand_126

>  <IC50 (nM)>  (11) 
18700

>  <charge>  (11) 
-1

$$$$
ligand_123
     RDKit          3D

 50 54  0  0  0  0  0  0  0  0999 V2000
   73.8801   10.9133   58.8824 C   0  0  0  0  0  0  0  0  0  0  0  0
   73.8159   10.2050   57.6872 C   0  0  0  0  0  0  0  0  0  0  0  0
   73.2532   10.8142   56.5789 C   0  0  0  0  0  0  0  0  0  0  0  0
   72.7520   12.1179   56.6800 C   0  0  0  0  0  0  0  0  0  0  0  0
   72.7905   12.8722   57.8831 C   0  0  0  0  0  0  0  0  0  0  0  0
   73.3861   12.2442   59.0054 C   0  0  0  0  0  0  0  0  0  0  0  0
   72.1777   14.2223   57.8493 C   0  0  0  0  0  0  0  0  0  0  0  0
   71.4707   14.5204   56.7034 O   0  0  0  0  0  0  0  0  0  0  0  0
   70.9434   15.8010   56.7611 C   0  0  0  0  0  0  0  0  0  0  0  0
   71.3222   16.3104   57.9930 C   0  0  0  0  0  0  0  0  0  0  0  0
   72.0912   15.3204   58.6752 C   0  0  0  0  0  0  0  0  0  0  0  0
   70.1278   16.2763   55.6862 C   0  0  0  0  0  0  0  0  0  0  0  0
   69.7660   17.5264   55.3494 C   0  0  0  0  0  0  0  0  0  0  0  0
   70.1721   18.8553   55.8802 C   0  0  0  0  0  0  0  0  0  0  0  0
   69.5628   19.7679   54.9892 N   0  0  0  0  0  0  0  0  0  0  0  0
   68.7943   19.1699   53.9896 N   0  0  0  0  0  0  0  0  0  0  0  0
   68.8756   17.8783   54.2009 C   0  0  0  0  0  0  0  0  0  0  0  0
   70.8834   19.0533   56.8462 O   0  0  0  0  0  0  0  0  0  0  0  0
   69.6540   21.1864   55.0176 C   0  0  0  0  0  0  0  0  0  0  0  0
   68.9786   21.9642   54.0570 C   0  0  0  0  0  0  0  0  0  0  0  0
   69.0632   23.3617   54.0686 C   0  0  0  0  0  0  0  0  0  0  0  0
   69.8221   23.9992   55.0412 C   0  0  0  0  0  0  0  0  0  0  0  0
   70.4967   23.2569   56.0005 C   0  0  0  0  0  0  0  0  0  0  0  0
   70.4140   21.8581   55.9884 C   0  0  0  0  0  0  0  0  0  0  0  0
   68.1559   16.8887   53.3810 C   0  0  0  0  0  0  0  0  0  0  0  0
   73.5822   12.8561   60.3720 C   0  0  0  0  0  0  0  0  0  0  0  0
   74.1870   13.9704   60.4513 O   0  0  0  0  0  0  0  0  0  0  0  0
   73.2384   12.1381   61.3733 O   0  0  0  0  0  0  0  0  0  0  0  0
   67.4183   15.8547   53.9683 C   0  0  0  0  0  0  0  0  0  0  0  0
   66.7762   14.9077   53.1654 C   0  0  0  0  0  0  0  0  0  0  0  0
   66.8376   15.0130   51.7767 C   0  0  0  0  0  0  0  0  0  0  0  0
   67.5400   16.0674   51.1891 C   0  0  0  0  0  0  0  0  0  0  0  0
   68.1955   17.0086   51.9879 C   0  0  0  0  0  0  0  0  0  0  0  0
   69.9044   25.3374   55.0532 F   0  0  0  0  0  0  0  0  0  0  0  0
   74.3245   10.4398   59.7599 H   0  0  0  0  0  0  0  0  0  0  0  0
   74.2048    9.1934   57.6323 H   0  0  0  0  0  0  0  0  0  0  0  0
   73.1954   10.2822   55.6344 H   0  0  0  0  0  0  0  0  0  0  0  0
   72.3166   12.5536   55.7827 H   0  0  0  0  0  0  0  0  0  0  0  0
   71.0673   17.2785   58.3977 H   0  0  0  0  0  0  0  0  0  0  0  0
   72.5296   15.4212   59.6594 H   0  0  0  0  0  0  0  0  0  0  0  0
   69.7900   15.4566   55.0591 H   0  0  0  0  0  0  0  0  0  0  0  0
   68.3805   21.4816   53.2878 H   0  0  0  0  0  0  0  0  0  0  0  0
   68.5403   23.9511   53.3226 H   0  0  0  0  0  0  0  0  0  0  0  0
   71.0913   23.7571   56.7589 H   0  0  0  0  0  0  0  0  0  0  0  0
   70.9612   21.3125   56.7561 H   0  0  0  0  0  0  0  0  0  0  0  0
   67.3380   15.7663   55.0495 H   0  0  0  0  0  0  0  0  0  0  0  0
   66.2534   14.0798   53.6412 H   0  0  0  0  0  0  0  0  0  0  0  0
   66.3406   14.2745   51.1504 H   0  0  0  0  0  0  0  0  0  0  0  0
   67.5877   16.1497   50.1062 H   0  0  0  0  0  0  0  0  0  0  0  0
   68.7540   17.8186   51.5245 H   0  0  0  0  0  0  0  0  0  0  0  0
  1  2  2  0
  1  6  1  0
  1 35  1  0
  2  3  1  0
  2 36  1  0
  3  4  2  0
  3 37  1  0
  4  5  1  0
  4 38  1  0
  5  6  2  0
  5  7  1  0
  6 26  1  0
  7  8  1  0
  7 11  2  0
  8  9  1  0
  9 10  2  0
  9 12  1  0
 10 11  1  0
 10 39  1  0
 11 40  1  0
 12 13  2  0
 12 41  1  0
 13 14  1  0
 13 17  1  0
 14 15  1  0
 14 18  2  0
 15 16  1  0
 15 19  1  0
 16 17  2  0
 17 25  1  0
 19 20  2  0
 19 24  1  0
 20 21  1  0
 20 42  1  0
 21 22  2  0
 21 43  1  0
 22 23  1  0
 22 34  1  0
 23 24  2  0
 23 44  1  0
 24 45  1  0
 25 29  2  0
 25 33  1  0
 26 27  2  0
 26 28  1  0
 29 30  1  0
 29 46  1  0
 30 31  2  0
 30 47  1  0
 31 32  1  0
 31 48  1  0
 32 33  2  0
 32 49  1  0
 33 50  1  0
M  CHG  1  28  -1
A    1
-0.12371546
A    2
-0.11445974
A    3
-0.097589135
A    4
-0.13181165
A    5
-0.019098038
A    6
-0.0863429
A    7
0.19534728
A    8
-0.21551283
A    9
0.24646439
A   10
-0.25836548
A   11
-0.22581649
A   12
-0.2495421
A   13
-0.07523515
A   14
0.40513164
A   15
-0.03834058
A   16
-0.30403215
A   17
0.1704821
A   18
-0.49720886
A   19
0.1517446
A   20
-0.17023492
A   21
-0.24294133
A   22
0.2977195
A   23
-0.26675415
A   24
-0.15345262
A   25
0.044750802
A   26
0.5764171
A   27
-0.55053955
A   28
-0.6241705
A   29
-0.14068191
A   30
-0.10336782
A   31
-0.09821592
A   32
-0.10160458
A   33
-0.14434575
A   34
-0.16914214
A   35
0.124658234
A   36
0.12819293
A   37
0.12502253
A   38
0.12053949
A   39
0.15457062
A   40
0.16223904
A   41
0.13963449
A   42
0.12054712
A   43
0.15005438
A   44
0.14819497
A   45
0.13604154
A   46
0.12366392
A   47
0.12223636
A   48
0.11737126
A   49
0.11445709
A   50
0.1270404
M  END
>  <Name>  (12) 
ligand_123

>  <IC50 (nM)>  (12) 
37500

>  <charge>  (12) 
0

$$$$
ligand_46
     RDKit          3D

 54 56  0  0  0  0  0  0  0  0999 V2000
   67.1502   21.1574   48.2433 C   0  0  0  0  0  0  0  0  0  0  0  0
   66.9335   21.7522   46.9917 C   0  0  0  0  0  0  0  0  0  0  0  0
   67.7077   21.3476   45.9002 C   0  0  0  0  0  0  0  0  0  0  0  0
   68.6866   20.3676   46.0520 C   0  0  0  0  0  0  0  0  0  0  0  0
   68.8966   19.7854   47.3015 C   0  0  0  0  0  0  0  0  0  0  0  0
   68.1284   20.1701   48.4076 C   0  0  0  0  0  0  0  0  0  0  0  0
   65.8980   22.8112   46.7868 C   0  0  0  0  0  0  0  0  0  0  0  0
   65.0811   23.2633   47.9707 C   0  0  0  0  0  0  0  0  0  0  0  0
   65.7135   23.3064   45.6720 O   0  0  0  0  0  0  0  0  0  0  0  0
   68.3993   19.5340   49.6348 N   0  0  0  0  0  0  0  0  0  0  0  0
   67.7154   19.6608   50.8409 C   0  0  0  0  0  0  0  0  0  0  0  0
   66.7127   20.3552   51.0070 O   0  0  0  0  0  0  0  0  0  0  0  0
   68.3864   18.8808   51.9876 C   0  0  0  0  0  0  0  0  0  0  0  0
   67.7072   19.1060   53.3456 C   0  0  0  0  0  0  0  0  0  0  0  0
   68.0164   20.4843   53.9214 C   0  0  0  0  0  0  0  0  0  0  0  0
   68.3258   17.0866   51.5630 S   0  0  0  0  0  0  0  0  0  0  0  0
   69.7017   16.5329   52.4916 C   0  0  0  0  0  0  0  0  0  0  0  0
   71.9321   16.8205   52.7671 C   0  0  0  0  0  0  0  0  0  0  0  0
   70.6440   15.3288   54.1657 C   0  0  0  0  0  0  0  0  0  0  0  0
   71.8580   15.8441   53.8955 C   0  0  0  0  0  0  0  0  0  0  0  0
   69.5155   15.7280   53.4845 N   0  0  0  0  0  0  0  0  0  0  0  0
   70.8406   17.0193   52.0311 N   0  0  0  0  0  0  0  0  0  0  0  0
   72.9972   17.3939   52.5436 O   0  0  0  0  0  0  0  0  0  0  0  0
   73.0347   15.5432   54.6392 C   0  0  0  0  0  0  0  0  0  0  0  0
   73.9632   15.2627   55.2837 N   0  0  0  0  0  0  0  0  0  0  0  0
   70.4331   14.3526   55.2662 C   0  0  0  0  0  0  0  0  0  0  0  0
   71.0474   13.0896   55.2626 C   0  0  0  0  0  0  0  0  0  0  0  0
   69.5975   14.6855   56.3384 C   0  0  0  0  0  0  0  0  0  0  0  0
   69.4100   13.7923   57.3960 C   0  0  0  0  0  0  0  0  0  0  0  0
   70.0523   12.5493   57.3978 C   0  0  0  0  0  0  0  0  0  0  0  0
   70.8715   12.1929   56.3257 C   0  0  0  0  0  0  0  0  0  0  0  0
   71.5446   11.0067   56.1953 O   0  0  0  0  0  0  0  0  0  0  0  0
   71.5272   10.1269   57.3140 C   0  0  0  0  0  0  0  0  0  0  0  0
   66.5592   21.4684   49.0957 H   0  0  0  0  0  0  0  0  0  0  0  0
   67.5521   21.7953   44.9229 H   0  0  0  0  0  0  0  0  0  0  0  0
   69.2783   20.0635   45.1913 H   0  0  0  0  0  0  0  0  0  0  0  0
   69.6641   19.0206   47.4038 H   0  0  0  0  0  0  0  0  0  0  0  0
   64.3878   24.0473   47.6497 H   0  0  0  0  0  0  0  0  0  0  0  0
   65.7305   23.6847   48.7424 H   0  0  0  0  0  0  0  0  0  0  0  0
   64.4910   22.4317   48.3644 H   0  0  0  0  0  0  0  0  0  0  0  0
   69.1479   18.8418   49.6474 H   0  0  0  0  0  0  0  0  0  0  0  0
   69.4273   19.2206   52.0318 H   0  0  0  0  0  0  0  0  0  0  0  0
   66.6194   18.9910   53.2627 H   0  0  0  0  0  0  0  0  0  0  0  0
   68.0543   18.3664   54.0775 H   0  0  0  0  0  0  0  0  0  0  0  0
   67.5365   20.5987   54.8987 H   0  0  0  0  0  0  0  0  0  0  0  0
   67.6521   21.2866   53.2738 H   0  0  0  0  0  0  0  0  0  0  0  0
   69.0945   20.6166   54.0583 H   0  0  0  0  0  0  0  0  0  0  0  0
   71.6767   12.7978   54.4240 H   0  0  0  0  0  0  0  0  0  0  0  0
   69.0896   15.6482   56.3434 H   0  0  0  0  0  0  0  0  0  0  0  0
   68.7588   14.0698   58.2202 H   0  0  0  0  0  0  0  0  0  0  0  0
   69.8816   11.8845   58.2375 H   0  0  0  0  0  0  0  0  0  0  0  0
   72.1637    9.2695   57.0747 H   0  0  0  0  0  0  0  0  0  0  0  0
   70.5162    9.7502   57.4999 H   0  0  0  0  0  0  0  0  0  0  0  0
   71.9399   10.6108   58.2055 H   0  0  0  0  0  0  0  0  0  0  0  0
  1  2  2  0
  1  6  1  0
  1 34  1  0
  2  3  1  0
  2  7  1  0
  3  4  2  0
  3 35  1  0
  4  5  1  0
  4 36  1  0
  5  6  2  0
  5 37  1  0
  6 10  1  0
  7  8  1  0
  7  9  2  0
  8 38  1  0
  8 39  1  0
  8 40  1  0
 10 11  1  0
 10 41  1  0
 11 12  2  0
 11 13  1  0
 13 14  1  0
 13 16  1  0
 13 42  1  0
 14 15  1  0
 14 43  1  0
 14 44  1  0
 15 45  1  0
 15 46  1  0
 15 47  1  0
 16 17  1  0
 17 21  2  0
 17 22  1  0
 18 20  1  0
 18 22  1  0
 18 23  2  0
 19 20  2  0
 19 21  1  0
 19 26  1  0
 20 24  1  0
 24 25  3  0
 26 27  2  0
 26 28  1  0
 27 31  1  0
 27 48  1  0
 28 29  2  0
 28 49  1  0
 29 30  1  0
 29 50  1  0
 30 31  2  0
 30 51  1  0
 31 32  1  0
 32 33  1  0
 33 52  1  0
 33 53  1  0
 33 54  1  0
M  CHG  1  22  -1
A    1
-0.24874891
A    2
-0.016194878
A    3
-0.11893919
A    4
-0.081548005
A    5
-0.21154423
A    6
0.31334484
A    7
0.5067465
A    8
-0.55281484
A    9
-0.50864524
A   10
-0.5428517
A   11
0.519408
A   12
-0.5508357
A   13
-0.1173627
A   14
-0.09086291
A   15
-0.33703262
A   16
-0.100371785
A   17
0.3840368
A   18
0.566577
A   19
0.23779266
A   20
-0.21329367
A   21
-0.4730214
A   22
-0.57460654
A   23
-0.48727688
A   24
0.28590035
A   25
-0.46634218
A   26
0.05355945
A   27
-0.29296282
A   28
-0.1281347
A   29
-0.0890395
A   30
-0.2572558
A   31
0.3101911
A   32
-0.18994099
A   33
-0.16863573
A   34
0.13959941
A   35
0.13175926
A   36
0.13280594
A   37
0.13421738
A   38
0.13921751
A   39
0.13976087
A   40
0.13776632
A   41
0.29748833
A   42
0.09363551
A   43
0.07694539
A   44
0.08603801
A   45
0.08995744
A   46
0.0908324
A   47
0.086976655
A   48
0.1479707
A   49
0.12796357
A   50
0.13074751
A   51
0.14619902
A   52
0.10957582
A   53
0.10278167
A   54
0.09846742
M  END
>  <Name>  (13) 
ligand_46

>  <IC50 (nM)>  (13) 
60000

>  <charge>  (13) 
-1

$$$$
ligand_47
     RDKit          3D

 43 45  0  0  0  0  0  0  0  0999 V2000
   68.1290   18.0064   51.8676 C   0  0  0  0  0  0  0  0  0  0  0  0
   67.2476   16.9434   51.6605 C   0  0  0  0  0  0  0  0  0  0  0  0
   67.0825   15.9712   52.6544 C   0  0  0  0  0  0  0  0  0  0  0  0
   67.7864   16.0421   53.8587 C   0  0  0  0  0  0  0  0  0  0  0  0
   68.6672   17.0960   54.0812 C   0  0  0  0  0  0  0  0  0  0  0  0
   68.8214   18.0748   53.0948 C   0  0  0  0  0  0  0  0  0  0  0  0
   66.0118   14.6441   52.4002 Cl  0  0  0  0  0  0  0  0  0  0  0  0
   68.3751   19.0324   50.9244 N   0  0  0  0  0  0  0  0  0  0  0  0
   69.7409   19.0795   53.3082 O   0  0  0  0  0  0  0  0  0  0  0  0
   69.3445   20.1489   54.0833 C   0  0  0  0  0  0  0  0  0  0  0  0
   68.7704   22.4062   55.6338 C   0  0  0  0  0  0  0  0  0  0  0  0
   70.0915   22.0109   55.4338 C   0  0  0  0  0  0  0  0  0  0  0  0
   70.3800   20.8823   54.6662 C   0  0  0  0  0  0  0  0  0  0  0  0
   68.0198   20.5551   54.2708 C   0  0  0  0  0  0  0  0  0  0  0  0
   67.7352   21.6808   55.0489 C   0  0  0  0  0  0  0  0  0  0  0  0
   67.8278   19.1928   49.6542 C   0  0  0  0  0  0  0  0  0  0  0  0
   66.9994   18.4488   49.1411 O   0  0  0  0  0  0  0  0  0  0  0  0
   68.4218   20.4171   48.9578 C   0  0  0  0  0  0  0  0  0  0  0  0
   67.9318   20.5904   47.2238 S   0  0  0  0  0  0  0  0  0  0  0  0
   66.3557   21.2973   47.3901 C   0  0  0  0  0  0  0  0  0  0  0  0
   64.5729   22.1816   46.0753 C   0  0  0  0  0  0  0  0  0  0  0  0
   63.9098   22.4448   47.3643 C   0  0  0  0  0  0  0  0  0  0  0  0
   64.5544   22.1247   48.4968 C   0  0  0  0  0  0  0  0  0  0  0  0
   65.8102   21.5609   48.5291 N   0  0  0  0  0  0  0  0  0  0  0  0
   65.7892   21.5745   46.1849 N   0  0  0  0  0  0  0  0  0  0  0  0
   64.0612   22.5015   45.0067 O   0  0  0  0  0  0  0  0  0  0  0  0
   63.9270   22.3640   49.8405 C   0  0  0  0  0  0  0  0  0  0  0  0
   66.6853   16.8437   50.7377 H   0  0  0  0  0  0  0  0  0  0  0  0
   67.6619   15.2740   54.6201 H   0  0  0  0  0  0  0  0  0  0  0  0
   69.2333   17.1471   55.0097 H   0  0  0  0  0  0  0  0  0  0  0  0
   69.0440   19.7301   51.2365 H   0  0  0  0  0  0  0  0  0  0  0  0
   68.5551   23.2713   56.2586 H   0  0  0  0  0  0  0  0  0  0  0  0
   70.9004   22.5721   55.8956 H   0  0  0  0  0  0  0  0  0  0  0  0
   71.4161   20.5690   54.5487 H   0  0  0  0  0  0  0  0  0  0  0  0
   67.1909   20.0202   53.8161 H   0  0  0  0  0  0  0  0  0  0  0  0
   66.7023   21.9937   55.1833 H   0  0  0  0  0  0  0  0  0  0  0  0
   69.5122   20.3066   48.9691 H   0  0  0  0  0  0  0  0  0  0  0  0
   68.1836   21.3196   49.5301 H   0  0  0  0  0  0  0  0  0  0  0  0
   62.9243   22.8877   47.3344 H   0  0  0  0  0  0  0  0  0  0  0  0
   66.2831   21.3594   45.3327 H   0  0  0  0  0  0  0  0  0  0  0  0
   64.5499   23.0413   50.4342 H   0  0  0  0  0  0  0  0  0  0  0  0
   63.8265   21.4193   50.3853 H   0  0  0  0  0  0  0  0  0  0  0  0
   62.9307   22.8110   49.7583 H   0  0  0  0  0  0  0  0  0  0  0  0
  1  2  2  0
  1  6  1  0
  1  8  1  0
  2  3  1  0
  2 28  1  0
  3  4  2  0
  3  7  1  0
  4  5  1  0
  4 29  1  0
  5  6  2  0
  5 30  1  0
  6  9  1  0
  8 16  1  0
  8 31  1  0
  9 10  1  0
 10 13  2  0
 10 14  1  0
 11 12  2  0
 11 15  1  0
 11 32  1  0
 12 13  1  0
 12 33  1  0
 13 34  1  0
 14 15  2  0
 14 35  1  0
 15 36  1  0
 16 17  2  0
 16 18  1  0
 18 19  1  0
 18 37  1  0
 18 38  1  0
 19 20  1  0
 20 24  2  0
 20 25  1  0
 21 22  1  0
 21 25  1  0
 21 26  2  0
 22 23  2  0
 22 39  1  0
 23 24  1  0
 23 27  1  0
 25 40  1  0
 27 41  1  0
 27 42  1  0
 27 43  1  0
A    1
0.18480407
A    2
-0.3055844
A    3
0.15742047
A    4
-0.16727902
A    5
-0.16632147
A    6
0.13277094
A    7
-0.08518562
A    8
-0.55893886
A    9
-0.26739126
A   10
0.29486102
A   11
-0.10806715
A   12
-0.0804951
A   13
-0.22316816
A   14
-0.213085
A   15
-0.08561562
A   16
0.6265605
A   17
-0.5685472
A   18
-0.34732652
A   19
-0.0286334
A   20
0.33731377
A   21
0.6011359
A   22
-0.455336
A   23
0.4123277
A   24
-0.46136752
A   25
-0.42937747
A   26
-0.5050639
A   27
-0.464379
A   28
0.16593842
A   29
0.14163183
A   30
0.16110824
A   31
0.33933157
A   32
0.13198797
A   33
0.13171645
A   34
0.15944129
A   35
0.16242011
A   36
0.13606723
A   37
0.1713156
A   38
0.15759055
A   39
0.16583963
A   40
0.3580342
A   41
0.12982541
A   42
0.13492782
A   43
0.12679176
M  END
>  <Name>  (14) 
ligand_47

>  <IC50 (nM)>  (14) 
100000

>  <charge>  (14) 
0

$$$$
ligand_44
     RDKit          3D

 47 49  0  0  0  0  0  0  0  0999 V2000
   68.8892   18.7901   53.5754 C   0  0  0  0  0  0  0  0  0  0  0  0
   68.6862   17.5165   54.1264 C   0  0  0  0  0  0  0  0  0  0  0  0
   69.2956   17.1371   55.3372 C   0  0  0  0  0  0  0  0  0  0  0  0
   70.1259   18.0260   56.0223 C   0  0  0  0  0  0  0  0  0  0  0  0
   70.3193   19.2992   55.4641 C   0  0  0  0  0  0  0  0  0  0  0  0
   69.7246   19.6730   54.2520 C   0  0  0  0  0  0  0  0  0  0  0  0
   70.7831   17.7557   57.1952 O   0  0  0  0  0  0  0  0  0  0  0  0
   70.5610   16.4888   57.8030 C   0  0  0  0  0  0  0  0  0  0  0  0
   71.1575   20.2242   56.0360 O   0  0  0  0  0  0  0  0  0  0  0  0
   70.5039   20.8786   57.1231 C   0  0  0  0  0  0  0  0  0  0  0  0
   68.2366   19.0990   52.3570 N   0  0  0  0  0  0  0  0  0  0  0  0
   68.2398   20.3197   51.6935 C   0  0  0  0  0  0  0  0  0  0  0  0
   68.7969   21.3478   52.0718 O   0  0  0  0  0  0  0  0  0  0  0  0
   67.4640   20.3118   50.3838 C   0  0  0  0  0  0  0  0  0  0  0  0
   68.6206   20.0094   49.0158 S   0  0  0  0  0  0  0  0  0  0  0  0
   67.7857   20.8179   47.7276 C   0  0  0  0  0  0  0  0  0  0  0  0
   66.7163   22.0855   45.5961 C   0  0  0  0  0  0  0  0  0  0  0  0
   68.1710   21.8779   45.6442 C   0  0  0  0  0  0  0  0  0  0  0  0
   66.5058   20.9678   47.7064 N   0  0  0  0  0  0  0  0  0  0  0  0
   68.6297   21.2466   46.7562 N   0  0  0  0  0  0  0  0  0  0  0  0
   68.8930   22.2491   44.7265 O   0  0  0  0  0  0  0  0  0  0  0  0
   65.9783   21.6349   46.6223 C   0  0  0  0  0  0  0  0  0  0  0  0
   64.5081   21.8207   46.5944 C   0  0  0  0  0  0  0  0  0  0  0  0
   62.2777   20.9078   46.9484 C   0  0  0  0  0  0  0  0  0  0  0  0
   61.7115   22.1262   46.5818 C   0  0  0  0  0  0  0  0  0  0  0  0
   62.5330   23.1964   46.2336 C   0  0  0  0  0  0  0  0  0  0  0  0
   63.9224   23.0470   46.2431 C   0  0  0  0  0  0  0  0  0  0  0  0
   63.6668   20.7581   46.9584 C   0  0  0  0  0  0  0  0  0  0  0  0
   68.0475   16.7980   53.6179 H   0  0  0  0  0  0  0  0  0  0  0  0
   69.1048   16.1368   55.7148 H   0  0  0  0  0  0  0  0  0  0  0  0
   69.9462   20.6634   53.8691 H   0  0  0  0  0  0  0  0  0  0  0  0
   71.1380   16.4573   58.7321 H   0  0  0  0  0  0  0  0  0  0  0  0
   70.9175   15.6776   57.1600 H   0  0  0  0  0  0  0  0  0  0  0  0
   69.5051   16.3549   58.0598 H   0  0  0  0  0  0  0  0  0  0  0  0
   71.1516   21.6940   57.4591 H   0  0  0  0  0  0  0  0  0  0  0  0
   70.3539   20.2000   57.9687 H   0  0  0  0  0  0  0  0  0  0  0  0
   69.5480   21.3147   56.8112 H   0  0  0  0  0  0  0  0  0  0  0  0
   67.7134   18.3444   51.9313 H   0  0  0  0  0  0  0  0  0  0  0  0
   66.6858   19.5429   50.3907 H   0  0  0  0  0  0  0  0  0  0  0  0
   66.9804   21.2899   50.2884 H   0  0  0  0  0  0  0  0  0  0  0  0
   66.3186   22.5848   44.7238 H   0  0  0  0  0  0  0  0  0  0  0  0
   69.6199   21.0805   46.8494 H   0  0  0  0  0  0  0  0  0  0  0  0
   61.6427   20.0729   47.2330 H   0  0  0  0  0  0  0  0  0  0  0  0
   60.6306   22.2454   46.5716 H   0  0  0  0  0  0  0  0  0  0  0  0
   62.0920   24.1513   45.9585 H   0  0  0  0  0  0  0  0  0  0  0  0
   64.5411   23.9045   45.9891 H   0  0  0  0  0  0  0  0  0  0  0  0
   64.0949   19.8019   47.2516 H   0  0  0  0  0  0  0  0  0  0  0  0
  1  2  2  0
  1  6  1  0
  1 11  1  0
  2  3  1  0
  2 29  1  0
  3  4  2  0
  3 30  1  0
  4  5  1  0
  4  7  1  0
  5  6  2  0
  5  9  1  0
  6 31  1  0
  7  8  1  0
  8 32  1  0
  8 33  1  0
  8 34  1  0
  9 10  1  0
 10 35  1  0
 10 36  1  0
 10 37  1  0
 11 12  1  0
 11 38  1  0
 12 13  2  0
 12 14  1  0
 14 15  1  0
 14 39  1  0
 14 40  1  0
 15 16  1  0
 16 19  2  0
 16 20  1  0
 17 18  1  0
 17 22  2  0
 17 41  1  0
 18 20  1  0
 18 21  2  0
 19 22  1  0
 20 42  1  0
 22 23  1  0
 23 27  1  0
 23 28  2  0
 24 25  2  0
 24 28  1  0
 24 43  1  0
 25 26  1  0
 25 44  1  0
 26 27  2  0
 26 45  1  0
 27 46  1  0
 28 47  1  0
A    1
0.261436
A    2
-0.19602066
A    3
-0.19425617
A    4
0.15848395
A    5
0.13929354
A    6
-0.33423427
A    7
-0.18523091
A    8
-0.17934296
A    9
-0.19305639
A   10
-0.17843924
A   11
-0.49877092
A   12
0.58296627
A   13
-0.5202449
A   14
-0.30980405
A   15
-0.045900274
A   16
0.3859563
A   17
-0.43020353
A   18
0.6076269
A   19
-0.46444866
A   20
-0.4293773
A   21
-0.5700553
A   22
0.25002605
A   23
0.054808695
A   24
-0.09095357
A   25
-0.106154434
A   26
-0.10148284
A   27
-0.13650104
A   28
-0.14652121
A   29
0.14596872
A   30
0.15219834
A   31
0.1632385
A   32
0.112815574
A   33
0.10416548
A   34
0.10563962
A   35
0.097650245
A   36
0.10217937
A   37
0.09237387
A   38
0.31855816
A   39
0.14992057
A   40
0.14935313
A   41
0.18621846
A   42
0.33417135
A   43
0.1392064
A   44
0.12926745
A   45
0.1353886
A   46
0.12466298
A   47
0.1274241
M  END
>  <Name>  (15) 
ligand_44

>  <IC50 (nM)>  (15) 
45000

>  <charge>  (15) 
0

$$$$
ligand_118
     RDKit          3D

 50 54  0  0  0  0  0  0  0  0999 V2000
   75.4260   14.5630   61.0568 C   0  0  0  0  0  0  0  0  0  0  0  0
   74.7056   14.9203   62.1919 C   0  0  0  0  0  0  0  0  0  0  0  0
   73.4135   15.4022   62.0339 C   0  0  0  0  0  0  0  0  0  0  0  0
   72.8373   15.5139   60.7612 C   0  0  0  0  0  0  0  0  0  0  0  0
   73.5394   15.1357   59.5932 C   0  0  0  0  0  0  0  0  0  0  0  0
   74.8741   14.6674   59.7485 C   0  0  0  0  0  0  0  0  0  0  0  0
   72.7926   15.1584   58.3177 C   0  0  0  0  0  0  0  0  0  0  0  0
   71.9403   16.2182   58.0944 O   0  0  0  0  0  0  0  0  0  0  0  0
   71.3101   16.0587   56.8591 C   0  0  0  0  0  0  0  0  0  0  0  0
   71.7648   14.8526   56.3409 C   0  0  0  0  0  0  0  0  0  0  0  0
   72.6954   14.2910   57.2531 C   0  0  0  0  0  0  0  0  0  0  0  0
   70.4743   17.0806   56.2956 C   0  0  0  0  0  0  0  0  0  0  0  0
   69.3919   16.9421   55.5050 C   0  0  0  0  0  0  0  0  0  0  0  0
   68.7031   15.7130   55.0229 C   0  0  0  0  0  0  0  0  0  0  0  0
   67.7006   16.2083   54.1594 N   0  0  0  0  0  0  0  0  0  0  0  0
   67.6490   17.6022   54.0699 N   0  0  0  0  0  0  0  0  0  0  0  0
   68.6071   18.0410   54.8539 C   0  0  0  0  0  0  0  0  0  0  0  0
   68.9687   14.5691   55.3415 O   0  0  0  0  0  0  0  0  0  0  0  0
   66.7775   15.4452   53.3955 C   0  0  0  0  0  0  0  0  0  0  0  0
   66.7847   14.0422   53.4058 C   0  0  0  0  0  0  0  0  0  0  0  0
   65.8742   13.3101   52.6321 C   0  0  0  0  0  0  0  0  0  0  0  0
   64.9450   13.9735   51.8425 C   0  0  0  0  0  0  0  0  0  0  0  0
   64.9129   15.3615   51.8155 C   0  0  0  0  0  0  0  0  0  0  0  0
   65.8260   16.0913   52.5859 C   0  0  0  0  0  0  0  0  0  0  0  0
   68.8982   19.4727   55.0230 C   0  0  0  0  0  0  0  0  0  0  0  0
   72.5089   15.8370   63.4383 Cl  0  0  0  0  0  0  0  0  0  0  0  0
   75.8046   14.2927   58.6043 C   0  0  0  0  0  0  0  0  0  0  0  0
   75.6366   14.8774   57.4897 O   0  0  0  0  0  0  0  0  0  0  0  0
   76.7298   13.4494   58.8738 O   0  0  0  0  0  0  0  0  0  0  0  0
   68.9828   20.2748   53.8785 C   0  0  0  0  0  0  0  0  0  0  0  0
   69.3259   21.6215   54.0030 C   0  0  0  0  0  0  0  0  0  0  0  0
   69.5448   22.1795   55.2632 C   0  0  0  0  0  0  0  0  0  0  0  0
   69.4100   21.3932   56.4064 C   0  0  0  0  0  0  0  0  0  0  0  0
   69.0732   20.0423   56.2892 C   0  0  0  0  0  0  0  0  0  0  0  0
   64.0783   13.2707   51.0993 F   0  0  0  0  0  0  0  0  0  0  0  0
   76.4480   14.1967   61.1689 H   0  0  0  0  0  0  0  0  0  0  0  0
   75.1621   14.8231   63.1739 H   0  0  0  0  0  0  0  0  0  0  0  0
   71.8133   15.8695   60.6750 H   0  0  0  0  0  0  0  0  0  0  0  0
   71.4997   14.4349   55.3804 H   0  0  0  0  0  0  0  0  0  0  0  0
   73.2574   13.3734   57.1386 H   0  0  0  0  0  0  0  0  0  0  0  0
   70.8279   18.0743   56.5480 H   0  0  0  0  0  0  0  0  0  0  0  0
   67.5021   13.4842   54.0060 H   0  0  0  0  0  0  0  0  0  0  0  0
   65.9044   12.2257   52.6468 H   0  0  0  0  0  0  0  0  0  0  0  0
   64.1839   15.8712   51.1939 H   0  0  0  0  0  0  0  0  0  0  0  0
   65.8045   17.1772   52.5515 H   0  0  0  0  0  0  0  0  0  0  0  0
   68.8049   19.8558   52.8898 H   0  0  0  0  0  0  0  0  0  0  0  0
   69.4195   22.2393   53.1132 H   0  0  0  0  0  0  0  0  0  0  0  0
   69.8115   23.2310   55.3535 H   0  0  0  0  0  0  0  0  0  0  0  0
   69.5918   21.8201   57.3903 H   0  0  0  0  0  0  0  0  0  0  0  0
   68.9617   19.4471   57.1925 H   0  0  0  0  0  0  0  0  0  0  0  0
  1  2  2  0
  1  6  1  0
  1 36  1  0
  2  3  1  0
  2 37  1  0
  3  4  2  0
  3 26  1  0
  4  5  1  0
  4 38  1  0
  5  6  2  0
  5  7  1  0
  6 27  1  0
  7  8  1  0
  7 11  2  0
  8  9  1  0
  9 10  2  0
  9 12  1  0
 10 11  1  0
 10 39  1  0
 11 40  1  0
 12 13  2  0
 12 41  1  0
 13 14  1  0
 13 17  1  0
 14 15  1  0
 14 18  2  0
 15 16  1  0
 15 19  1  0
 16 17  2  0
 17 25  1  0
 19 20  2  0
 19 24  1  0
 20 21  1  0
 20 42  1  0
 21 22  2  0
 21 43  1  0
 22 23  1  0
 22 35  1  0
 23 24  2  0
 23 44  1  0
 24 45  1  0
 25 30  2  0
 25 34  1  0
 27 28  2  0
 27 29  1  0
 30 31  1  0
 30 46  1  0
 31 32  2  0
 31 47  1  0
 32 33  1  0
 32 48  1  0
 33 34  2  0
 33 49  1  0
 34 50  1  0
M  CHG  1  29  -1
A    1
-0.1060559
A    2
-0.18575978
A    3
0.13876776
A    4
-0.2191231
A    5
0.005491831
A    6
-0.09335842
A    7
0.19355947
A    8
-0.23536113
A    9
0.21046792
A   10
-0.2479322
A   11
-0.2462714
A   12
-0.21310851
A   13
-0.12798911
A   14
0.41932094
A   15
-0.04372761
A   16
-0.27848855
A   17
0.14250536
A   18
-0.50056934
A   19
0.16667454
A   20
-0.15594944
A   21
-0.24041918
A   22
0.32111594
A   23
-0.22491473
A   24
-0.15685245
A   25
0.045729093
A   26
-0.095137395
A   27
0.57078916
A   28
-0.525133
A   29
-0.57429546
A   30
-0.15649267
A   31
-0.104843974
A   32
-0.11590409
A   33
-0.09927695
A   34
-0.1479816
A   35
-0.18357693
A   36
0.13585363
A   37
0.13654114
A   38
0.13019219
A   39
0.16275543
A   40
0.16435534
A   41
0.14949486
A   42
0.12686318
A   43
0.14663792
A   44
0.14889625
A   45
0.13477041
A   46
0.12315409
A   47
0.13552156
A   48
0.12405852
A   49
0.108486705
A   50
0.13651973
M  END
>  <Name>  (16) 
ligand_118

>  <IC50 (nM)>  (16) 
20200

>  <charge>  (16) 
0

$$$$
ligand_57
     RDKit          3D

 42 44  0  0  0  0  0  0  0  0999 V2000
   66.8721   20.0322   48.6480 C   0  0  0  0  0  0  0  0  0  0  0  0
   66.6610   20.0334   47.2624 C   0  0  0  0  0  0  0  0  0  0  0  0
   67.5642   19.3937   46.4188 C   0  0  0  0  0  0  0  0  0  0  0  0
   68.6733   18.7433   46.9532 C   0  0  0  0  0  0  0  0  0  0  0  0
   68.8751   18.7343   48.3400 C   0  0  0  0  0  0  0  0  0  0  0  0
   67.9797   19.3828   49.2026 C   0  0  0  0  0  0  0  0  0  0  0  0
   68.2408   19.3193   50.5871 N   0  0  0  0  0  0  0  0  0  0  0  0
   67.5734   19.9799   51.6136 C   0  0  0  0  0  0  0  0  0  0  0  0
   66.6859   20.8164   51.4509 O   0  0  0  0  0  0  0  0  0  0  0  0
   67.9857   19.4869   53.0114 C   0  0  0  0  0  0  0  0  0  0  0  0
   69.8025   19.6319   53.2255 S   0  0  0  0  0  0  0  0  0  0  0  0
   70.0162   18.3786   54.4299 C   0  0  0  0  0  0  0  0  0  0  0  0
   70.8426   17.9345   56.5015 C   0  0  0  0  0  0  0  0  0  0  0  0
   69.7341   16.2587   55.1559 C   0  0  0  0  0  0  0  0  0  0  0  0
   69.5733   17.1955   54.1678 N   0  0  0  0  0  0  0  0  0  0  0  0
   70.6329   18.8133   55.5165 N   0  0  0  0  0  0  0  0  0  0  0  0
   71.4166   18.2161   57.5545 O   0  0  0  0  0  0  0  0  0  0  0  0
   70.3495   16.5372   56.3183 C   0  0  0  0  0  0  0  0  0  0  0  0
   70.5538   15.5846   57.3540 C   0  0  0  0  0  0  0  0  0  0  0  0
   70.6819   14.7700   58.1759 N   0  0  0  0  0  0  0  0  0  0  0  0
   69.1936   14.9162   54.8433 C   0  0  0  0  0  0  0  0  0  0  0  0
   69.7386   14.1812   53.7811 C   0  0  0  0  0  0  0  0  0  0  0  0
   68.1173   14.3765   55.5604 C   0  0  0  0  0  0  0  0  0  0  0  0
   67.6123   13.1159   55.2335 C   0  0  0  0  0  0  0  0  0  0  0  0
   68.1744   12.3854   54.1874 C   0  0  0  0  0  0  0  0  0  0  0  0
   69.2353   12.9191   53.4579 C   0  0  0  0  0  0  0  0  0  0  0  0
   67.3083   19.4056   44.7152 Cl  0  0  0  0  0  0  0  0  0  0  0  0
   67.2763   20.2632   54.1158 C   0  0  0  0  0  0  0  0  0  0  0  0
   66.1439   20.5420   49.2717 H   0  0  0  0  0  0  0  0  0  0  0  0
   65.7893   20.5392   46.8549 H   0  0  0  0  0  0  0  0  0  0  0  0
   69.3868   18.2509   46.2975 H   0  0  0  0  0  0  0  0  0  0  0  0
   69.7463   18.2198   48.7403 H   0  0  0  0  0  0  0  0  0  0  0  0
   69.0392   18.7674   50.8927 H   0  0  0  0  0  0  0  0  0  0  0  0
   67.6792   18.4359   53.0586 H   0  0  0  0  0  0  0  0  0  0  0  0
   70.5567   14.6023   53.2001 H   0  0  0  0  0  0  0  0  0  0  0  0
   67.6674   14.9329   56.3803 H   0  0  0  0  0  0  0  0  0  0  0  0
   66.7830   12.7046   55.8022 H   0  0  0  0  0  0  0  0  0  0  0  0
   67.7851   11.4007   53.9437 H   0  0  0  0  0  0  0  0  0  0  0  0
   69.6710   12.3590   52.6356 H   0  0  0  0  0  0  0  0  0  0  0  0
   66.1891   20.1799   54.0044 H   0  0  0  0  0  0  0  0  0  0  0  0
   67.5214   21.3312   54.0842 H   0  0  0  0  0  0  0  0  0  0  0  0
   67.5299   19.8775   55.1090 H   0  0  0  0  0  0  0  0  0  0  0  0
  1  2  2  0
  1  6  1  0
  1 29  1  0
  2  3  1  0
  2 30  1  0
  3  4  2  0
  3 27  1  0
  4  5  1  0
  4 31  1  0
  5  6  2  0
  5 32  1  0
  6  7  1  0
  7  8  1  0
  7 33  1  0
  8  9  2  0
  8 10  1  0
 10 11  1  0
 10 28  1  0
 10 34  1  0
 11 12  1  0
 12 15  2  0
 12 16  1  0
 13 16  1  0
 13 17  2  0
 13 18  1  0
 14 15  1  0
 14 18  2  0
 14 21  1  0
 18 19  1  0
 19 20  3  0
 21 22  2  0
 21 23  1  0
 22 26  1  0
 22 35  1  0
 23 24  2  0
 23 36  1  0
 24 25  1  0
 24 37  1  0
 25 26  2  0
 25 38  1  0
 26 39  1  0
 28 40  1  0
 28 41  1  0
 28 42  1  0
M  CHG  1  16  -1
A    1
-0.22913319
A    2
-0.15157706
A    3
0.13969724
A    4
-0.15521228
A    5
-0.23594102
A    6
0.2888489
A    7
-0.58050036
A    8
0.5432327
A    9
-0.53466105
A   10
-0.07632338
A   11
-0.098639585
A   12
0.34895086
A   13
0.5754315
A   14
0.22284997
A   15
-0.4739569
A   16
-0.54158276
A   17
-0.52820337
A   18
-0.22862688
A   19
0.26545733
A   20
-0.45638102
A   21
0.026816217
A   22
-0.13019758
A   23
-0.12521005
A   24
-0.1005488
A   25
-0.10403406
A   26
-0.1065903
A   27
-0.09269218
A   28
-0.3709856
A   29
0.13621496
A   30
0.14940527
A   31
0.13960722
A   32
0.1404748
A   33
0.31655928
A   34
0.09743337
A   35
0.12694189
A   36
0.11925691
A   37
0.128229
A   38
0.1304487
A   39
0.124208905
A   40
0.10832803
A   41
0.0966825
A   42
0.09592158
M  END
>  <Name>  (17) 
ligand_57

>  <IC50 (nM)>  (17) 
300000

>  <charge>  (17) 
-1

$$$$
ligand_127
     RDKit          3D

 54 58  0  0  0  0  0  0  0  0999 V2000
   72.3338   13.3107   60.9290 C   0  0  0  0  0  0  0  0  0  0  0  0
   72.4347   14.6549   61.2887 C   0  0  0  0  0  0  0  0  0  0  0  0
   72.1539   15.6372   60.3536 C   0  0  0  0  0  0  0  0  0  0  0  0
   71.7763   15.2672   59.0630 C   0  0  0  0  0  0  0  0  0  0  0  0
   71.6664   13.9109   58.6719 C   0  0  0  0  0  0  0  0  0  0  0  0
   71.9458   12.9027   59.6291 C   0  0  0  0  0  0  0  0  0  0  0  0
   71.3127   13.6690   57.2714 C   0  0  0  0  0  0  0  0  0  0  0  0
   70.3887   14.5261   56.7246 O   0  0  0  0  0  0  0  0  0  0  0  0
   70.1304   14.1324   55.4333 C   0  0  0  0  0  0  0  0  0  0  0  0
   70.9621   13.0571   55.1489 C   0  0  0  0  0  0  0  0  0  0  0  0
   71.7158   12.7710   56.3101 C   0  0  0  0  0  0  0  0  0  0  0  0
   69.0843   14.6580   54.6305 C   0  0  0  0  0  0  0  0  0  0  0  0
   68.8545   15.9546   54.3820 C   0  0  0  0  0  0  0  0  0  0  0  0
   69.6689   17.1599   54.6865 C   0  0  0  0  0  0  0  0  0  0  0  0
   68.9873   18.1824   53.9846 N   0  0  0  0  0  0  0  0  0  0  0  0
   67.8275   17.7578   53.3246 N   0  0  0  0  0  0  0  0  0  0  0  0
   67.7226   16.4780   53.5770 C   0  0  0  0  0  0  0  0  0  0  0  0
   70.6925   17.2005   55.3423 O   0  0  0  0  0  0  0  0  0  0  0  0
   69.3613   19.5478   53.8702 C   0  0  0  0  0  0  0  0  0  0  0  0
   68.5696   20.4366   53.1274 C   0  0  0  0  0  0  0  0  0  0  0  0
   68.9271   21.7838   52.9822 C   0  0  0  0  0  0  0  0  0  0  0  0
   70.0841   22.2799   53.5814 C   0  0  0  0  0  0  0  0  0  0  0  0
   70.8766   21.4105   54.3281 C   0  0  0  0  0  0  0  0  0  0  0  0
   70.5172   20.0607   54.4698 C   0  0  0  0  0  0  0  0  0  0  0  0
   66.6094   15.6437   53.1082 C   0  0  0  0  0  0  0  0  0  0  0  0
   71.8249   11.4000   59.3927 C   0  0  0  0  0  0  0  0  0  0  0  0
   70.9807   10.9931   58.5324 O   0  0  0  0  0  0  0  0  0  0  0  0
   72.5633   10.6381   60.1150 O   0  0  0  0  0  0  0  0  0  0  0  0
   66.2449   15.7071   51.7624 C   0  0  0  0  0  0  0  0  0  0  0  0
   65.2329   14.8721   51.2889 C   0  0  0  0  0  0  0  0  0  0  0  0
   64.5563   14.0080   52.1518 C   0  0  0  0  0  0  0  0  0  0  0  0
   64.8959   13.9738   53.5019 C   0  0  0  0  0  0  0  0  0  0  0  0
   65.9192   14.7955   53.9847 C   0  0  0  0  0  0  0  0  0  0  0  0
   70.3285   23.6094   53.3632 O   0  0  0  0  0  0  0  0  0  0  0  0
   71.4784   24.1542   53.9975 C   0  0  0  0  0  0  0  0  0  0  0  0
   72.5473   12.5439   61.6721 H   0  0  0  0  0  0  0  0  0  0  0  0
   72.7265   14.9260   62.2966 H   0  0  0  0  0  0  0  0  0  0  0  0
   72.2282   16.6871   60.6158 H   0  0  0  0  0  0  0  0  0  0  0  0
   71.5786   16.0541   58.3362 H   0  0  0  0  0  0  0  0  0  0  0  0
   70.9854   12.5050   54.2212 H   0  0  0  0  0  0  0  0  0  0  0  0
   72.4269   11.9703   56.4604 H   0  0  0  0  0  0  0  0  0  0  0  0
   68.4373   13.8954   54.2080 H   0  0  0  0  0  0  0  0  0  0  0  0
   67.6588   20.0803   52.6542 H   0  0  0  0  0  0  0  0  0  0  0  0
   68.2947   22.4473   52.3984 H   0  0  0  0  0  0  0  0  0  0  0  0
   71.7879   21.7431   54.8129 H   0  0  0  0  0  0  0  0  0  0  0  0
   71.1722   19.4257   55.0627 H   0  0  0  0  0  0  0  0  0  0  0  0
   66.7493   16.3849   51.0760 H   0  0  0  0  0  0  0  0  0  0  0  0
   64.9701   14.8974   50.2368 H   0  0  0  0  0  0  0  0  0  0  0  0
   63.7605   13.3728   51.7669 H   0  0  0  0  0  0  0  0  0  0  0  0
   64.3843   13.2984   54.1850 H   0  0  0  0  0  0  0  0  0  0  0  0
   66.1661   14.7558   55.0440 H   0  0  0  0  0  0  0  0  0  0  0  0
   71.5265   25.2178   53.7445 H   0  0  0  0  0  0  0  0  0  0  0  0
   72.3948   23.6835   53.6265 H   0  0  0  0  0  0  0  0  0  0  0  0
   71.4046   24.0755   55.0873 H   0  0  0  0  0  0  0  0  0  0  0  0
  1  2  2  0
  1  6  1  0
  1 36  1  0
  2  3  1  0
  2 37  1  0
  3  4  2  0
  3 38  1  0
  4  5  1  0
  4 39  1  0
  5  6  2  0
  5  7  1  0
  6 26  1  0
  7  8  1  0
  7 11  2  0
  8  9  1  0
  9 10  2  0
  9 12  1  0
 10 11  1  0
 10 40  1  0
 11 41  1  0
 12 13  2  0
 12 42  1  0
 13 14  1  0
 13 17  1  0
 14 15  1  0
 14 18  2  0
 15 16  1  0
 15 19  1  0
 16 17  2  0
 17 25  1  0
 19 20  2  0
 19 24  1  0
 20 21  1  0
 20 43  1  0
 21 22  2  0
 21 44  1  0
 22 23  1  0
 22 34  1  0
 23 24  2  0
 23 45  1  0
 24 46  1  0
 25 29  2  0
 25 33  1  0
 26 27  2  0
 26 28  1  0
 29 30  1  0
 29 47  1  0
 30 31  2  0
 30 48  1  0
 31 32  1  0
 31 49  1  0
 32 33  2  0
 32 50  1  0
 33 51  1  0
 34 35  1  0
 35 52  1  0
 35 53  1  0
 35 54  1  0
M  CHG  1  28  -1
A    1
-0.12244621
A    2
-0.1081914
A    3
-0.11160205
A    4
-0.12763928
A    5
-0.020230837
A    6
-0.08344582
A    7
0.21504965
A    8
-0.22359289
A    9
0.25117612
A   10
-0.25371787
A   11
-0.23688881
A   12
-0.21563427
A   13
-0.10249392
A   14
0.42282334
A   15
-0.035575688
A   16
-0.3375296
A   17
0.16373436
A   18
-0.5246265
A   19
0.14512096
A   20
-0.1729172
A   21
-0.255468
A   22
0.27820474
A   23
-0.24458948
A   24
-0.16624624
A   25
0.042662982
A   26
0.53409165
A   27
-0.5026005
A   28
-0.6164454
A   29
-0.14160511
A   30
-0.10494292
A   31
-0.10123141
A   32
-0.09740476
A   33
-0.13487318
A   34
-0.22695807
A   35
-0.16416758
A   36
0.1357268
A   37
0.11472389
A   38
0.1259271
A   39
0.12122917
A   40
0.14971796
A   41
0.14897317
A   42
0.14327411
A   43
0.12575342
A   44
0.1338664
A   45
0.1400774
A   46
0.13326469
A   47
0.12737286
A   48
0.13108829
A   49
0.12138911
A   50
0.12302613
A   51
0.12362263
A   52
0.09420653
A   53
0.09286123
A   54
0.09410009
M  END
>  <Name>  (18) 
ligand_127

>  <IC50 (nM)>  (18) 
30700

>  <charge>  (18) 
-1

$$$$
ligand_120
     RDKit          3D

 62 66  0  0  0  0  0  0  0  0999 V2000
   68.9844   17.8441   55.1837 C   0  0  0  0  0  0  0  0  0  0  0  0
   68.2051   16.6949   55.0931 C   0  0  0  0  0  0  0  0  0  0  0  0
   67.4963   16.4617   53.9221 C   0  0  0  0  0  0  0  0  0  0  0  0
   67.5706   17.3561   52.8473 C   0  0  0  0  0  0  0  0  0  0  0  0
   68.3686   18.5220   52.9081 C   0  0  0  0  0  0  0  0  0  0  0  0
   69.0798   18.7769   54.1131 C   0  0  0  0  0  0  0  0  0  0  0  0
   68.4762   19.3247   51.6749 C   0  0  0  0  0  0  0  0  0  0  0  0
   67.3231   19.5335   50.9512 O   0  0  0  0  0  0  0  0  0  0  0  0
   67.6172   20.2875   49.8211 C   0  0  0  0  0  0  0  0  0  0  0  0
   68.9908   20.4993   49.8303 C   0  0  0  0  0  0  0  0  0  0  0  0
   69.5275   19.9047   51.0008 C   0  0  0  0  0  0  0  0  0  0  0  0
   66.5957   20.7996   48.9570 C   0  0  0  0  0  0  0  0  0  0  0  0
   66.6161   20.8603   47.6134 C   0  0  0  0  0  0  0  0  0  0  0  0
   67.6367   20.3624   46.6534 C   0  0  0  0  0  0  0  0  0  0  0  0
   67.1116   20.7338   45.3971 N   0  0  0  0  0  0  0  0  0  0  0  0
   65.8928   21.4114   45.4504 N   0  0  0  0  0  0  0  0  0  0  0  0
   65.5871   21.4754   46.7227 C   0  0  0  0  0  0  0  0  0  0  0  0
   68.6566   19.7620   46.9366 O   0  0  0  0  0  0  0  0  0  0  0  0
   67.6684   20.4620   44.1248 C   0  0  0  0  0  0  0  0  0  0  0  0
   66.9967   20.8649   42.9652 C   0  0  0  0  0  0  0  0  0  0  0  0
   67.5129   20.5879   41.6957 C   0  0  0  0  0  0  0  0  0  0  0  0
   68.7265   19.8976   41.5355 C   0  0  0  0  0  0  0  0  0  0  0  0
   69.3985   19.5068   42.7019 C   0  0  0  0  0  0  0  0  0  0  0  0
   68.8790   19.7848   43.9736 C   0  0  0  0  0  0  0  0  0  0  0  0
   64.3642   22.1218   47.2009 C   0  0  0  0  0  0  0  0  0  0  0  0
   66.5400   15.0302   53.7974 Cl  0  0  0  0  0  0  0  0  0  0  0  0
   69.9297   20.0108   54.3789 C   0  0  0  0  0  0  0  0  0  0  0  0
   70.8732   19.8809   55.2346 O   0  0  0  0  0  0  0  0  0  0  0  0
   69.6157   21.0866   53.7814 O   0  0  0  0  0  0  0  0  0  0  0  0
   64.0811   23.4215   46.7648 C   0  0  0  0  0  0  0  0  0  0  0  0
   62.9330   24.0628   47.2233 C   0  0  0  0  0  0  0  0  0  0  0  0
   62.0521   23.3956   48.0744 C   0  0  0  0  0  0  0  0  0  0  0  0
   62.3159   22.0859   48.4735 C   0  0  0  0  0  0  0  0  0  0  0  0
   63.4702   21.4416   48.0317 C   0  0  0  0  0  0  0  0  0  0  0  0
   69.2651   19.5999   40.1280 C   0  0  0  0  0  0  0  0  0  0  0  0
   70.6083   18.8351   40.1219 C   0  0  0  0  0  0  0  0  0  0  0  0
   69.4911   20.9239   39.3662 C   0  0  0  0  0  0  0  0  0  0  0  0
   68.2458   18.7366   39.3532 C   0  0  0  0  0  0  0  0  0  0  0  0
   69.5362   18.0422   56.1041 H   0  0  0  0  0  0  0  0  0  0  0  0
   68.1608   16.0059   55.9327 H   0  0  0  0  0  0  0  0  0  0  0  0
   67.0302   17.1315   51.9298 H   0  0  0  0  0  0  0  0  0  0  0  0
   69.5466   21.0692   49.0996 H   0  0  0  0  0  0  0  0  0  0  0  0
   70.5550   19.9164   51.3413 H   0  0  0  0  0  0  0  0  0  0  0  0
   65.7431   21.1892   49.5032 H   0  0  0  0  0  0  0  0  0  0  0  0
   66.0548   21.3994   43.0506 H   0  0  0  0  0  0  0  0  0  0  0  0
   66.9440   20.9214   40.8305 H   0  0  0  0  0  0  0  0  0  0  0  0
   70.3451   18.9747   42.6725 H   0  0  0  0  0  0  0  0  0  0  0  0
   69.4521   19.4506   44.8368 H   0  0  0  0  0  0  0  0  0  0  0  0
   64.7554   23.9393   46.0859 H   0  0  0  0  0  0  0  0  0  0  0  0
   62.7137   25.0818   46.9121 H   0  0  0  0  0  0  0  0  0  0  0  0
   61.1505   23.8982   48.4169 H   0  0  0  0  0  0  0  0  0  0  0  0
   61.6384   21.5689   49.1478 H   0  0  0  0  0  0  0  0  0  0  0  0
   63.6591   20.4164   48.3402 H   0  0  0  0  0  0  0  0  0  0  0  0
   70.5203   17.8610   40.6171 H   0  0  0  0  0  0  0  0  0  0  0  0
   71.3988   19.4040   40.6252 H   0  0  0  0  0  0  0  0  0  0  0  0
   70.9506   18.6456   39.0974 H   0  0  0  0  0  0  0  0  0  0  0  0
   68.5609   21.4850   39.2248 H   0  0  0  0  0  0  0  0  0  0  0  0
   69.9085   20.7400   38.3693 H   0  0  0  0  0  0  0  0  0  0  0  0
   70.1894   21.5750   39.9054 H   0  0  0  0  0  0  0  0  0  0  0  0
   67.2891   19.2514   39.2120 H   0  0  0  0  0  0  0  0  0  0  0  0
   68.0399   17.7988   39.8827 H   0  0  0  0  0  0  0  0  0  0  0  0
   68.6219   18.4808   38.3557 H   0  0  0  0  0  0  0  0  0  0  0  0
  1  2  2  0
  1  6  1  0
  1 39  1  0
  2  3  1  0
  2 40  1  0
  3  4  2  0
  3 26  1  0
  4  5  1  0
  4 41  1  0
  5  6  2  0
  5  7  1  0
  6 27  1  0
  7  8  1  0
  7 11  2  0
  8  9  1  0
  9 10  2  0
  9 12  1  0
 10 11  1  0
 10 42  1  0
 11 43  1  0
 12 13  2  0
 12 44  1  0
 13 14  1  0
 13 17  1  0
 14 15  1  0
 14 18  2  0
 15 16  1  0
 15 19  1  0
 16 17  2  0
 17 25  1  0
 19 20  2  0
 19 24  1  0
 20 21  1  0
 20 45  1  0
 21 22  2  0
 21 46  1  0
 22 23  1  0
 22 35  1  0
 23 24  2  0
 23 47  1  0
 24 48  1  0
 25 30  2  0
 25 34  1  0
 27 28  2  0
 27 29  1  0
 30 31  1  0
 30 49  1  0
 31 32  2  0
 31 50  1  0
 32 33  1  0
 32 51  1  0
 33 34  2  0
 33 52  1  0
 34 53  1  0
 35 36  1  0
 35 37  1  0
 35 38  1  0
 36 54  1  0
 36 55  1  0
 36 56  1  0
 37 57  1  0
 37 58  1  0
 37 59  1  0
 38 60  1  0
 38 61  1  0
 38 62  1  0
M  CHG  1  29  -1
A    1
-0.10303815
A    2
-0.17737862
A    3
0.1456522
A    4
-0.20278667
A    5
0.0069381045
A    6
-0.091412544
A    7
0.20429252
A    8
-0.21314104
A    9
0.24944288
A   10
-0.2452434
A   11
-0.23788917
A   12
-0.19700447
A   13
-0.1098579
A   14
0.45518482
A   15
-0.03944614
A   16
-0.2811432
A   17
0.15979524
A   18
-0.47243643
A   19
0.17119344
A   20
-0.18675679
A   21
-0.13120855
A   22
0.04284151
A   23
-0.13974385
A   24
-0.21030992
A   25
0.041234147
A   26
-0.08407334
A   27
0.5585644
A   28
-0.5230159
A   29
-0.590346
A   30
-0.14480805
A   31
-0.0975343
A   32
-0.10619483
A   33
-0.098733135
A   34
-0.13988772
A   35
0.19965534
A   36
-0.43622392
A   37
-0.44301036
A   38
-0.4375143
A   39
0.13491273
A   40
0.14626113
A   41
0.1369416
A   42
0.17104642
A   43
0.16610296
A   44
0.15372919
A   45
0.13262582
A   46
0.12803848
A   47
0.12833007
A   48
0.13515767
A   49
0.12767796
A   50
0.13249628
A   51
0.12373835
A   52
0.11977787
A   53
0.12738286
A   54
0.095682964
A   55
0.09065196
A   56
0.094139144
A   57
0.08679402
A   58
0.0928162
A   59
0.093773246
A   60
0.095111676
A   61
0.09561365
A   62
0.09654175
M  END
>  <Name>  (19) 
ligand_120

>  <IC50 (nM)>  (19) 
5800

>  <charge>  (19) 
-1

$$$$
ligand_103
     RDKit          3D

 45 48  0  0  0  0  0  0  0  0999 V2000
   68.7333   20.6311   53.3219 C   0  0  0  0  0  0  0  0  0  0  0  0
   68.5893   19.7277   52.2652 C   0  0  0  0  0  0  0  0  0  0  0  0
   68.9094   18.3871   52.4727 C   0  0  0  0  0  0  0  0  0  0  0  0
   69.2172   20.2109   54.5650 C   0  0  0  0  0  0  0  0  0  0  0  0
   69.5620   18.8714   54.7738 C   0  0  0  0  0  0  0  0  0  0  0  0
   69.3830   17.9636   53.7274 C   0  0  0  0  0  0  0  0  0  0  0  0
   69.6404   16.6185   53.8551 O   0  0  0  0  0  0  0  0  0  0  0  0
   69.9728   16.1291   55.1043 C   0  0  0  0  0  0  0  0  0  0  0  0
   70.2268   16.8853   56.1902 C   0  0  0  0  0  0  0  0  0  0  0  0
   70.1185   18.3679   56.0550 C   0  0  0  0  0  0  0  0  0  0  0  0
   70.0248   14.6601   55.1597 C   0  0  0  0  0  0  0  0  0  0  0  0
   71.1273   13.9588   54.6438 C   0  0  0  0  0  0  0  0  0  0  0  0
   71.2118   12.5699   54.7857 C   0  0  0  0  0  0  0  0  0  0  0  0
   68.9875   13.9551   55.7874 C   0  0  0  0  0  0  0  0  0  0  0  0
   70.5922   16.3811   57.4295 O   0  0  0  0  0  0  0  0  0  0  0  0
   70.4879   19.1092   56.9572 O   0  0  0  0  0  0  0  0  0  0  0  0
   69.3176   21.1288   55.5710 O   0  0  0  0  0  0  0  0  0  0  0  0
   68.1058   20.2839   51.1138 O   0  0  0  0  0  0  0  0  0  0  0  0
   69.0796   12.5776   55.9227 C   0  0  0  0  0  0  0  0  0  0  0  0
   70.1960   11.8965   55.4490 C   0  0  0  0  0  0  0  0  0  0  0  0
   68.1444   19.5038   49.9171 C   0  0  0  0  0  0  0  0  0  0  0  0
   67.7135   20.3647   48.7447 C   0  0  0  0  0  0  0  0  0  0  0  0
   66.6915   19.9415   47.8776 C   0  0  0  0  0  0  0  0  0  0  0  0
   66.3147   20.7242   46.7786 C   0  0  0  0  0  0  0  0  0  0  0  0
   66.9579   21.9369   46.5386 C   0  0  0  0  0  0  0  0  0  0  0  0
   67.9743   22.3712   47.3857 C   0  0  0  0  0  0  0  0  0  0  0  0
   68.3526   21.5872   48.4808 C   0  0  0  0  0  0  0  0  0  0  0  0
   66.4965   22.8992   45.1873 Cl  0  0  0  0  0  0  0  0  0  0  0  0
   68.0587   11.9123   56.5347 O   0  0  0  0  0  0  0  0  0  0  0  0
   70.3276   10.5600   55.6864 O   0  0  0  0  0  0  0  0  0  0  0  0
   68.4586   21.6704   53.1588 H   0  0  0  0  0  0  0  0  0  0  0  0
   68.7866   17.6448   51.6906 H   0  0  0  0  0  0  0  0  0  0  0  0
   71.9327   14.4946   54.1445 H   0  0  0  0  0  0  0  0  0  0  0  0
   72.0729   12.0242   54.4075 H   0  0  0  0  0  0  0  0  0  0  0  0
   68.1139   14.4762   56.1729 H   0  0  0  0  0  0  0  0  0  0  0  0
   70.6732   15.4164   57.3714 H   0  0  0  0  0  0  0  0  0  0  0  0
   69.1253   22.0208   55.2360 H   0  0  0  0  0  0  0  0  0  0  0  0
   67.4640   18.6503   50.0201 H   0  0  0  0  0  0  0  0  0  0  0  0
   69.1609   19.1390   49.7241 H   0  0  0  0  0  0  0  0  0  0  0  0
   66.1765   18.9991   48.0545 H   0  0  0  0  0  0  0  0  0  0  0  0
   65.5207   20.3882   46.1146 H   0  0  0  0  0  0  0  0  0  0  0  0
   68.4767   23.3180   47.2057 H   0  0  0  0  0  0  0  0  0  0  0  0
   69.1491   21.9419   49.1320 H   0  0  0  0  0  0  0  0  0  0  0  0
   68.1511   10.9648   56.3115 H   0  0  0  0  0  0  0  0  0  0  0  0
   70.2975   10.4816   56.6586 H   0  0  0  0  0  0  0  0  0  0  0  0
  1  2  2  0
  1  4  1  0
  1 31  1  0
  2  3  1  0
  2 18  1  0
  3  6  2  0
  3 32  1  0
  4  5  2  0
  4 17  1  0
  5  6  1  0
  5 10  1  0
  6  7  1  0
  7  8  1  0
  8  9  2  0
  8 11  1  0
  9 10  1  0
  9 15  1  0
 10 16  2  0
 11 12  2  0
 11 14  1  0
 12 13  1  0
 12 33  1  0
 13 20  2  0
 13 34  1  0
 14 19  2  0
 14 35  1  0
 15 36  1  0
 17 37  1  0
 18 21  1  0
 19 20  1  0
 19 29  1  0
 20 30  1  0
 21 22  1  0
 21 38  1  0
 21 39  1  0
 22 23  2  0
 22 27  1  0
 23 24  1  0
 23 40  1  0
 24 25  2  0
 24 41  1  0
 25 26  1  0
 25 28  1  0
 26 27  2  0
 26 42  1  0
 27 43  1  0
 29 44  1  0
 30 45  1  0
A    1
-0.44840488
A    2
0.30971912
A    3
-0.4106075
A    4
0.4235534
A    5
-0.2655605
A    6
0.2842748
A    7
-0.21031728
A    8
0.15088025
A    9
0.09967916
A   10
0.3536524
A   11
0.04408258
A   12
-0.11182796
A   13
-0.22463141
A   14
-0.26502487
A   15
-0.51284105
A   16
-0.47298014
A   17
-0.5577458
A   18
-0.24187045
A   19
0.24614136
A   20
0.27858907
A   21
-0.026829861
A   22
0.062569074
A   23
-0.12945315
A   24
-0.1734217
A   25
0.14446402
A   26
-0.17604333
A   27
-0.12227864
A   28
-0.099402994
A   29
-0.54781204
A   30
-0.52623093
A   31
0.16847731
A   32
0.1750024
A   33
0.1305019
A   34
0.15307409
A   35
0.1494452
A   36
0.39481202
A   37
0.38634217
A   38
0.08686731
A   39
0.08846868
A   40
0.124113545
A   41
0.14166471
A   42
0.14196539
A   43
0.13653341
A   44
0.46238232
A   45
0.38602883
M  END
>  <Name>  (20) 
ligand_103

>  <IC50 (nM)>  (20) 
20900

>  <charge>  (20) 
0

$$$$
ligand_49
     RDKit          3D

 57 60  0  0  0  0  0  0  0  0999 V2000
   69.0757   18.2509   55.2963 C   0  0  0  0  0  0  0  0  0  0  0  0
   69.0304   17.6983   54.0127 C   0  0  0  0  0  0  0  0  0  0  0  0
   69.1511   16.3189   53.8191 C   0  0  0  0  0  0  0  0  0  0  0  0
   69.3237   15.4574   54.9104 C   0  0  0  0  0  0  0  0  0  0  0  0
   69.3673   16.0150   56.1954 C   0  0  0  0  0  0  0  0  0  0  0  0
   69.2416   17.3974   56.3863 C   0  0  0  0  0  0  0  0  0  0  0  0
   69.4546   13.9561   54.7300 C   0  0  0  0  0  0  0  0  0  0  0  0
   68.1775   13.3498   54.1435 C   0  0  0  0  0  0  0  0  0  0  0  0
   70.6725   13.5967   53.8751 C   0  0  0  0  0  0  0  0  0  0  0  0
   68.9448   20.4224   56.5464 C   0  0  0  0  0  0  0  0  0  0  0  0
   69.1272   20.0157   57.6926 O   0  0  0  0  0  0  0  0  0  0  0  0
   68.9405   19.6506   55.3937 N   0  0  0  0  0  0  0  0  0  0  0  0
   68.6737   21.8968   56.2748 C   0  0  0  0  0  0  0  0  0  0  0  0
   71.1936   22.2934   55.2273 C   0  0  0  0  0  0  0  0  0  0  0  0
   72.8441   21.4163   53.2801 C   0  0  0  0  0  0  0  0  0  0  0  0
   71.4766   21.2412   53.2162 C   0  0  0  0  0  0  0  0  0  0  0  0
   73.3095   22.0678   54.3935 C   0  0  0  0  0  0  0  0  0  0  0  0
   70.1627   22.8987   56.5385 S   0  0  0  0  0  0  0  0  0  0  0  0
   70.6302   21.6837   54.1733 N   0  0  0  0  0  0  0  0  0  0  0  0
   72.5114   22.5097   55.3767 N   0  0  0  0  0  0  0  0  0  0  0  0
   70.8420   20.5626   52.0870 C   0  0  0  0  0  0  0  0  0  0  0  0
   71.4525   19.5808   51.3292 C   0  0  0  0  0  0  0  0  0  0  0  0
   69.1977   20.1531   50.6449 C   0  0  0  0  0  0  0  0  0  0  0  0
   70.3865   19.0282   50.1065 S   0  0  0  0  0  0  0  0  0  0  0  0
   69.5308   20.8428   51.7181 N   0  0  0  0  0  0  0  0  0  0  0  0
   67.8635   20.2444   49.9615 C   0  0  0  0  0  0  0  0  0  0  0  0
   68.0890   20.4080   48.5529 O   0  0  0  0  0  0  0  0  0  0  0  0
   66.9093   20.2747   47.8659 C   0  0  0  0  0  0  0  0  0  0  0  0
   64.5318   19.9443   46.4697 C   0  0  0  0  0  0  0  0  0  0  0  0
   65.2167   18.8224   46.9339 C   0  0  0  0  0  0  0  0  0  0  0  0
   66.4093   18.9870   47.6323 C   0  0  0  0  0  0  0  0  0  0  0  0
   66.2541   21.3943   47.3412 C   0  0  0  0  0  0  0  0  0  0  0  0
   65.0562   21.2263   46.6454 C   0  0  0  0  0  0  0  0  0  0  0  0
   66.8932   22.9884   47.5005 Cl  0  0  0  0  0  0  0  0  0  0  0  0
   68.8904   18.3341   53.1440 H   0  0  0  0  0  0  0  0  0  0  0  0
   69.1069   15.9253   52.8068 H   0  0  0  0  0  0  0  0  0  0  0  0
   69.4982   15.3799   57.0693 H   0  0  0  0  0  0  0  0  0  0  0  0
   69.2822   17.7732   57.4041 H   0  0  0  0  0  0  0  0  0  0  0  0
   69.6073   13.4978   55.7166 H   0  0  0  0  0  0  0  0  0  0  0  0
   67.3075   13.5937   54.7640 H   0  0  0  0  0  0  0  0  0  0  0  0
   68.2567   12.2586   54.0923 H   0  0  0  0  0  0  0  0  0  0  0  0
   67.9776   13.7166   53.1305 H   0  0  0  0  0  0  0  0  0  0  0  0
   71.5875   14.0284   54.2958 H   0  0  0  0  0  0  0  0  0  0  0  0
   70.5737   13.9615   52.8467 H   0  0  0  0  0  0  0  0  0  0  0  0
   70.8042   12.5100   53.8303 H   0  0  0  0  0  0  0  0  0  0  0  0
   68.9099   20.1600   54.5123 H   0  0  0  0  0  0  0  0  0  0  0  0
   68.2653   22.0615   55.2726 H   0  0  0  0  0  0  0  0  0  0  0  0
   67.9065   22.2252   56.9842 H   0  0  0  0  0  0  0  0  0  0  0  0
   73.5235   21.0853   52.5074 H   0  0  0  0  0  0  0  0  0  0  0  0
   74.3694   22.2614   54.5346 H   0  0  0  0  0  0  0  0  0  0  0  0
   72.4405   19.1541   51.4290 H   0  0  0  0  0  0  0  0  0  0  0  0
   67.2938   19.3333   50.1845 H   0  0  0  0  0  0  0  0  0  0  0  0
   67.3131   21.1120   50.3459 H   0  0  0  0  0  0  0  0  0  0  0  0
   63.5966   19.8158   45.9318 H   0  0  0  0  0  0  0  0  0  0  0  0
   64.8207   17.8286   46.7228 H   0  0  0  0  0  0  0  0  0  0  0  0
   66.9528   18.1181   47.9958 H   0  0  0  0  0  0  0  0  0  0  0  0
   64.5304   22.0755   46.2109 H   0  0  0  0  0  0  0  0  0  0  0  0
  1  2  2  0
  1  6  1  0
  1 12  1  0
  2  3  1  0
  2 35  1  0
  3  4  2  0
  3 36  1  0
  4  5  1  0
  4  7  1  0
  5  6  2  0
  5 37  1  0
  6 38  1  0
  7  8  1  0
  7  9  1  0
  7 39  1  0
  8 40  1  0
  8 41  1  0
  8 42  1  0
  9 43  1  0
  9 44  1  0
  9 45  1  0
 10 11  2  0
 10 12  1  0
 10 13  1  0
 12 46  1  0
 13 18  1  0
 13 47  1  0
 13 48  1  0
 14 18  1  0
 14 19  2  0
 14 20  1  0
 15 16  2  0
 15 17  1  0
 15 49  1  0
 16 19  1  0
 16 21  1  0
 17 20  2  0
 17 50  1  0
 21 22  2  0
 21 25  1  0
 22 24  1  0
 22 51  1  0
 23 24  1  0
 23 25  2  0
 23 26  1  0
 26 27  1  0
 26 52  1  0
 26 53  1  0
 27 28  1  0
 28 31  2  0
 28 32  1  0
 29 30  2  0
 29 33  1  0
 29 54  1  0
 30 31  1  0
 30 55  1  0
 31 56  1  0
 32 33  2  0
 32 34  1  0
 33 57  1  0
A    1
0.3045682
A    2
-0.21262993
A    3
-0.11934803
A    4
0.07493409
A    5
-0.13966557
A    6
-0.20747468
A    7
0.060696915
A    8
-0.41327703
A    9
-0.37336823
A   10
0.6281913
A   11
-0.5135347
A   12
-0.5193448
A   13
-0.28557506
A   14
0.3598724
A   15
-0.23067407
A   16
0.21366608
A   17
0.07947488
A   18
-0.05900096
A   19
-0.44377393
A   20
-0.40515625
A   21
0.14046825
A   22
-0.24733458
A   23
0.17199424
A   24
0.06998726
A   25
-0.39833814
A   26
-0.048136983
A   27
-0.230713
A   28
0.18922243
A   29
-0.10193625
A   30
-0.08351895
A   31
-0.2114183
A   32
0.027912974
A   33
-0.12831819
A   34
-0.07102265
A   35
0.14776754
A   36
0.14228573
A   37
0.13538639
A   38
0.14788207
A   39
0.059463806
A   40
0.10191875
A   41
0.10701769
A   42
0.1046954
A   43
0.10336008
A   44
0.10120914
A   45
0.107460864
A   46
0.32219666
A   47
0.1420134
A   48
0.16624935
A   49
0.15521768
A   50
0.12220033
A   51
0.18157792
A   52
0.10177693
A   53
0.112880446
A   54
0.13221993
A   55
0.13064225
A   56
0.1496848
A   57
0.14746432
M  END
>  <Name>  (21) 
ligand_49

>  <IC50 (nM)>  (21) 
200000

>  <charge>  (21) 
0

$$$$
ligand_104
     RDKit          3D

 46 49  0  0  0  0  0  0  0  0999 V2000
   68.8139   20.6954   53.4044 C   0  0  0  0  0  0  0  0  0  0  0  0
   68.6305   19.7814   52.3639 C   0  0  0  0  0  0  0  0  0  0  0  0
   68.9212   18.4383   52.5913 C   0  0  0  0  0  0  0  0  0  0  0  0
   69.3021   20.2817   54.6511 C   0  0  0  0  0  0  0  0  0  0  0  0
   69.6227   18.9392   54.8803 C   0  0  0  0  0  0  0  0  0  0  0  0
   69.4141   18.0253   53.8445 C   0  0  0  0  0  0  0  0  0  0  0  0
   69.6666   16.6804   53.9757 O   0  0  0  0  0  0  0  0  0  0  0  0
   70.0561   16.1973   55.2088 C   0  0  0  0  0  0  0  0  0  0  0  0
   70.3133   16.9525   56.2937 C   0  0  0  0  0  0  0  0  0  0  0  0
   70.1731   18.4349   56.1705 C   0  0  0  0  0  0  0  0  0  0  0  0
   70.1301   14.7302   55.2491 C   0  0  0  0  0  0  0  0  0  0  0  0
   71.3593   14.0620   55.1119 C   0  0  0  0  0  0  0  0  0  0  0  0
   71.4228   12.6692   55.2223 C   0  0  0  0  0  0  0  0  0  0  0  0
   68.9596   13.9934   55.4723 C   0  0  0  0  0  0  0  0  0  0  0  0
   70.6902   16.4432   57.5281 O   0  0  0  0  0  0  0  0  0  0  0  0
   70.5002   19.1719   57.0923 O   0  0  0  0  0  0  0  0  0  0  0  0
   69.4407   21.2221   55.6330 O   0  0  0  0  0  0  0  0  0  0  0  0
   68.1608   20.3382   51.2072 O   0  0  0  0  0  0  0  0  0  0  0  0
   69.0327   12.6124   55.5714 C   0  0  0  0  0  0  0  0  0  0  0  0
   70.2577   11.9599   55.4746 C   0  0  0  0  0  0  0  0  0  0  0  0
   68.0903   19.5276   50.0344 C   0  0  0  0  0  0  0  0  0  0  0  0
   67.9356   20.4452   48.8359 C   0  0  0  0  0  0  0  0  0  0  0  0
   69.0376   21.1927   48.3912 C   0  0  0  0  0  0  0  0  0  0  0  0
   68.9286   22.0479   47.2924 C   0  0  0  0  0  0  0  0  0  0  0  0
   67.7133   22.1702   46.6203 C   0  0  0  0  0  0  0  0  0  0  0  0
   66.5970   21.4449   47.0498 C   0  0  0  0  0  0  0  0  0  0  0  0
   66.7095   20.5875   48.1585 C   0  0  0  0  0  0  0  0  0  0  0  0
   67.8813   11.9065   55.7602 O   0  0  0  0  0  0  0  0  0  0  0  0
   70.3278   10.6137   55.6829 O   0  0  0  0  0  0  0  0  0  0  0  0
   65.3515   21.5911   46.3441 C   0  0  0  0  0  0  0  0  0  0  0  0
   64.3536   21.7191   45.7642 N   0  0  0  0  0  0  0  0  0  0  0  0
   68.5729   21.7413   53.2239 H   0  0  0  0  0  0  0  0  0  0  0  0
   68.7716   17.6857   51.8237 H   0  0  0  0  0  0  0  0  0  0  0  0
   72.2735   14.6246   54.9299 H   0  0  0  0  0  0  0  0  0  0  0  0
   72.3722   12.1464   55.1356 H   0  0  0  0  0  0  0  0  0  0  0  0
   67.9971   14.4897   55.5667 H   0  0  0  0  0  0  0  0  0  0  0  0
   70.7094   15.4747   57.4792 H   0  0  0  0  0  0  0  0  0  0  0  0
   69.1370   22.0827   55.2944 H   0  0  0  0  0  0  0  0  0  0  0  0
   67.2355   18.8457   50.1101 H   0  0  0  0  0  0  0  0  0  0  0  0
   69.0051   18.9376   49.8969 H   0  0  0  0  0  0  0  0  0  0  0  0
   69.9926   21.1156   48.9084 H   0  0  0  0  0  0  0  0  0  0  0  0
   69.7928   22.6232   46.9687 H   0  0  0  0  0  0  0  0  0  0  0  0
   67.6413   22.8403   45.7645 H   0  0  0  0  0  0  0  0  0  0  0  0
   65.8401   20.0277   48.5015 H   0  0  0  0  0  0  0  0  0  0  0  0
   68.0457   11.0059   55.4183 H   0  0  0  0  0  0  0  0  0  0  0  0
   69.8821   10.4755   56.5401 H   0  0  0  0  0  0  0  0  0  0  0  0
  1  2  2  0
  1  4  1  0
  1 32  1  0
  2  3  1  0
  2 18  1  0
  3  6  2  0
  3 33  1  0
  4  5  2  0
  4 17  1  0
  5  6  1  0
  5 10  1  0
  6  7  1  0
  7  8  1  0
  8  9  2  0
  8 11  1  0
  9 10  1  0
  9 15  1  0
 10 16  2  0
 11 12  2  0
 11 14  1  0
 12 13  1  0
 12 34  1  0
 13 20  2  0
 13 35  1  0
 14 19  2  0
 14 36  1  0
 15 37  1  0
 17 38  1  0
 18 21  1  0
 19 20  1  0
 19 28  1  0
 20 29  1  0
 21 22  1  0
 21 39  1  0
 21 40  1  0
 22 23  2  0
 22 27  1  0
 23 24  1  0
 23 41  1  0
 24 25  2  0
 24 42  1  0
 25 26  1  0
 25 43  1  0
 26 27  2  0
 26 30  1  0
 27 44  1  0
 28 45  1  0
 29 46  1  0
 30 31  3  0
A    1
-0.41576555
A    2
0.33279464
A    3
-0.43308714
A    4
0.40034747
A    5
-0.26734197
A    6
0.30148953
A    7
-0.19023336
A    8
0.1378899
A    9
0.10779866
A   10
0.32148826
A   11
0.04488725
A   12
-0.10955333
A   13
-0.21593598
A   14
-0.29738355
A   15
-0.4738875
A   16
-0.43878192
A   17
-0.53266215
A   18
-0.25290293
A   19
0.23209448
A   20
0.24856536
A   21
-0.027218007
A   22
0.07272128
A   23
-0.12952071
A   24
-0.092070274
A   25
-0.11255448
A   26
0.048549563
A   27
-0.1655478
A   28
-0.4945646
A   29
-0.5296784
A   30
0.2720327
A   31
-0.41666028
A   32
0.17389834
A   33
0.17506872
A   34
0.14518051
A   35
0.14261365
A   36
0.15670078
A   37
0.40152892
A   38
0.39007664
A   39
0.09565147
A   40
0.08575371
A   41
0.13633467
A   42
0.12458501
A   43
0.14246714
A   44
0.14841153
A   45
0.3662935
A   46
0.3901264
M  END
>  <Name>  (22) 
ligand_104

>  <IC50 (nM)>  (22) 
25400

>  <charge>  (22) 
0

$$$$
ligand_119
     RDKit          3D

 59 63  0  0  0  0  0  0  0  0999 V2000
   67.1749   17.4256   54.2997 C   0  0  0  0  0  0  0  0  0  0  0  0
   68.2090   17.3405   55.2301 C   0  0  0  0  0  0  0  0  0  0  0  0
   69.4042   17.9873   54.9589 C   0  0  0  0  0  0  0  0  0  0  0  0
   69.5714   18.7148   53.7836 C   0  0  0  0  0  0  0  0  0  0  0  0
   68.5376   18.8155   52.8327 C   0  0  0  0  0  0  0  0  0  0  0  0
   67.3177   18.1479   53.0888 C   0  0  0  0  0  0  0  0  0  0  0  0
   68.8113   19.6267   51.6510 C   0  0  0  0  0  0  0  0  0  0  0  0
   67.7585   20.2858   51.1149 O   0  0  0  0  0  0  0  0  0  0  0  0
   68.1388   20.8598   49.9265 C   0  0  0  0  0  0  0  0  0  0  0  0
   69.5194   20.7507   49.8512 C   0  0  0  0  0  0  0  0  0  0  0  0
   69.9469   19.9448   50.9375 C   0  0  0  0  0  0  0  0  0  0  0  0
   67.1316   21.3898   49.0856 C   0  0  0  0  0  0  0  0  0  0  0  0
   67.1054   21.3507   47.7489 C   0  0  0  0  0  0  0  0  0  0  0  0
   68.1321   20.9887   46.7363 C   0  0  0  0  0  0  0  0  0  0  0  0
   67.4498   21.1682   45.5183 N   0  0  0  0  0  0  0  0  0  0  0  0
   66.1368   21.6007   45.6571 N   0  0  0  0  0  0  0  0  0  0  0  0
   65.9057   21.6662   46.9404 C   0  0  0  0  0  0  0  0  0  0  0  0
   69.2853   20.6592   46.9428 O   0  0  0  0  0  0  0  0  0  0  0  0
   67.9188   20.8711   44.2135 C   0  0  0  0  0  0  0  0  0  0  0  0
   67.0692   21.0356   43.1078 C   0  0  0  0  0  0  0  0  0  0  0  0
   67.4745   20.6707   41.8222 C   0  0  0  0  0  0  0  0  0  0  0  0
   68.7478   20.1346   41.6083 C   0  0  0  0  0  0  0  0  0  0  0  0
   69.6164   20.0066   42.6963 C   0  0  0  0  0  0  0  0  0  0  0  0
   69.2042   20.3677   43.9836 C   0  0  0  0  0  0  0  0  0  0  0  0
   64.5781   21.9665   47.4845 C   0  0  0  0  0  0  0  0  0  0  0  0
   70.7014   17.9005   56.0862 Cl  0  0  0  0  0  0  0  0  0  0  0  0
   66.1261   18.1388   52.1479 C   0  0  0  0  0  0  0  0  0  0  0  0
   64.9896   18.2940   52.7083 O   0  0  0  0  0  0  0  0  0  0  0  0
   66.3223   17.9033   50.9129 O   0  0  0  0  0  0  0  0  0  0  0  0
   63.9740   21.1021   48.4042 C   0  0  0  0  0  0  0  0  0  0  0  0
   62.6963   21.3856   48.8821 C   0  0  0  0  0  0  0  0  0  0  0  0
   62.0161   22.5132   48.4237 C   0  0  0  0  0  0  0  0  0  0  0  0
   62.6071   23.3615   47.4856 C   0  0  0  0  0  0  0  0  0  0  0  0
   63.8880   23.0849   47.0068 C   0  0  0  0  0  0  0  0  0  0  0  0
   69.1513   19.6893   40.2191 C   0  0  0  0  0  0  0  0  0  0  0  0
   70.3755   20.4543   39.7085 C   0  0  0  0  0  0  0  0  0  0  0  0
   69.3916   18.1783   40.1618 C   0  0  0  0  0  0  0  0  0  0  0  0
   66.2288   16.9217   54.5030 H   0  0  0  0  0  0  0  0  0  0  0  0
   68.0668   16.7767   56.1462 H   0  0  0  0  0  0  0  0  0  0  0  0
   70.5162   19.2238   53.6133 H   0  0  0  0  0  0  0  0  0  0  0  0
   70.1501   21.1471   49.0700 H   0  0  0  0  0  0  0  0  0  0  0  0
   70.9506   19.6044   51.1492 H   0  0  0  0  0  0  0  0  0  0  0  0
   66.2436   21.6865   49.6352 H   0  0  0  0  0  0  0  0  0  0  0  0
   66.0619   21.4214   43.2464 H   0  0  0  0  0  0  0  0  0  0  0  0
   66.7787   20.7930   40.9944 H   0  0  0  0  0  0  0  0  0  0  0  0
   70.6168   19.6010   42.5610 H   0  0  0  0  0  0  0  0  0  0  0  0
   69.9096   20.2188   44.7957 H   0  0  0  0  0  0  0  0  0  0  0  0
   64.4782   20.2013   48.7573 H   0  0  0  0  0  0  0  0  0  0  0  0
   62.2394   20.7213   49.6142 H   0  0  0  0  0  0  0  0  0  0  0  0
   61.0163   22.7259   48.7930 H   0  0  0  0  0  0  0  0  0  0  0  0
   62.0633   24.2330   47.1292 H   0  0  0  0  0  0  0  0  0  0  0  0
   64.3423   23.7365   46.2646 H   0  0  0  0  0  0  0  0  0  0  0  0
   68.3273   19.9099   39.5273 H   0  0  0  0  0  0  0  0  0  0  0  0
   70.5936   20.1815   38.6703 H   0  0  0  0  0  0  0  0  0  0  0  0
   71.2709   20.2401   40.3020 H   0  0  0  0  0  0  0  0  0  0  0  0
   70.2034   21.5359   39.7418 H   0  0  0  0  0  0  0  0  0  0  0  0
   69.6018   17.8604   39.1349 H   0  0  0  0  0  0  0  0  0  0  0  0
   68.5099   17.6280   40.5091 H   0  0  0  0  0  0  0  0  0  0  0  0
   70.2406   17.8747   40.7842 H   0  0  0  0  0  0  0  0  0  0  0  0
  1  2  2  0
  1  6  1  0
  1 38  1  0
  2  3  1  0
  2 39  1  0
  3  4  2  0
  3 26  1  0
  4  5  1  0
  4 40  1  0
  5  6  2  0
  5  7  1  0
  6 27  1  0
  7  8  1  0
  7 11  2  0
  8  9  1  0
  9 10  2  0
  9 12  1  0
 10 11  1  0
 10 41  1  0
 11 42  1  0
 12 13  2  0
 12 43  1  0
 13 14  1  0
 13 17  1  0
 14 15  1  0
 14 18  2  0
 15 16  1  0
 15 19  1  0
 16 17  2  0
 17 25  1  0
 19 20  2  0
 19 24  1  0
 20 21  1  0
 20 44  1  0
 21 22  2  0
 21 45  1  0
 22 23  1  0
 22 35  1  0
 23 24  2  0
 23 46  1  0
 24 47  1  0
 25 30  2  0
 25 34  1  0
 27 28  2  0
 27 29  1  0
 30 31  1  0
 30 48  1  0
 31 32  2  0
 31 49  1  0
 32 33  1  0
 32 50  1  0
 33 34  2  0
 33 51  1  0
 34 52  1  0
 35 36  1  0
 35 37  1  0
 35 53  1  0
 36 54  1  0
 36 55  1  0
 36 56  1  0
 37 57  1  0
 37 58  1  0
 37 59  1  0
M  CHG  1  29  -1
A    1
-0.09891363
A    2
-0.17430662
A    3
0.15225817
A    4
-0.20296516
A    5
0.0063817333
A    6
-0.08533273
A    7
0.22204824
A    8
-0.23047881
A    9
0.24305297
A   10
-0.2366006
A   11
-0.23600806
A   12
-0.22426216
A   13
-0.10213885
A   14
0.40129137
A   15
-0.042553578
A   16
-0.2884103
A   17
0.17559117
A   18
-0.53438824
A   19
0.17027085
A   20
-0.19695872
A   21
-0.13659315
A   22
0.06780793
A   23
-0.1322749
A   24
-0.19262744
A   25
0.032124866
A   26
-0.09787679
A   27
0.5586344
A   28
-0.5734931
A   29
-0.5623722
A   30
-0.13720082
A   31
-0.10373734
A   32
-0.10579898
A   33
-0.10204646
A   34
-0.14124255
A   35
0.05020198
A   36
-0.39818174
A   37
-0.38141415
A   38
0.13198161
A   39
0.13433084
A   40
0.13870339
A   41
0.16625337
A   42
0.16065902
A   43
0.14844689
A   44
0.14159332
A   45
0.11971078
A   46
0.12931639
A   47
0.14012666
A   48
0.14050151
A   49
0.12565467
A   50
0.1289727
A   51
0.12411702
A   52
0.11294945
A   53
0.053983655
A   54
0.09045977
A   55
0.090761356
A   56
0.095049575
A   57
0.088138185
A   58
0.092758015
A   59
0.084045194
M  END
>  <Name>  (23) 
ligand_119

>  <IC50 (nM)>  (23) 
6000

>  <charge>  (23) 
-1

$$$$
ligand_129
     RDKit          3D

 57 61  0  0  0  0  0  0  0  0999 V2000
   69.1024   20.1364   48.1711 C   0  0  0  0  0  0  0  0  0  0  0  0
   67.7848   20.6786   48.6225 C   0  0  0  0  0  0  0  0  0  0  0  0
   67.0787   20.8214   47.4133 N   0  0  0  0  0  0  0  0  0  0  0  0
   67.7978   20.4428   46.2918 N   0  0  0  0  0  0  0  0  0  0  0  0
   68.9829   20.0907   46.6997 C   0  0  0  0  0  0  0  0  0  0  0  0
   67.4838   20.9274   49.7771 O   0  0  0  0  0  0  0  0  0  0  0  0
   65.8073   21.4106   47.1904 C   0  0  0  0  0  0  0  0  0  0  0  0
   65.0344   21.9201   48.2397 C   0  0  0  0  0  0  0  0  0  0  0  0
   63.8283   22.5810   47.9805 C   0  0  0  0  0  0  0  0  0  0  0  0
   63.3865   22.7486   46.6682 C   0  0  0  0  0  0  0  0  0  0  0  0
   64.1259   22.2326   45.5957 C   0  0  0  0  0  0  0  0  0  0  0  0
   65.3199   21.5497   45.8740 C   0  0  0  0  0  0  0  0  0  0  0  0
   70.0347   19.7587   45.7361 C   0  0  0  0  0  0  0  0  0  0  0  0
   71.2903   20.3673   45.8043 C   0  0  0  0  0  0  0  0  0  0  0  0
   72.1900   20.2013   44.7502 C   0  0  0  0  0  0  0  0  0  0  0  0
   71.8390   19.4322   43.6377 C   0  0  0  0  0  0  0  0  0  0  0  0
   70.5912   18.8174   43.5731 C   0  0  0  0  0  0  0  0  0  0  0  0
   69.6839   18.9897   44.6177 C   0  0  0  0  0  0  0  0  0  0  0  0
   63.6732   22.4569   44.1698 C   0  0  0  0  0  0  0  0  0  0  0  0
   63.9110   21.5497   43.3102 O   0  0  0  0  0  0  0  0  0  0  0  0
   63.0785   23.5550   43.9348 O   0  0  0  0  0  0  0  0  0  0  0  0
   70.1488   19.7296   48.9055 C   0  0  0  0  0  0  0  0  0  0  0  0
   70.2606   19.7608   50.3705 C   0  0  0  0  0  0  0  0  0  0  0  0
   70.8575   20.8574   51.0096 C   0  0  0  0  0  0  0  0  0  0  0  0
   71.0214   20.8648   52.3981 C   0  0  0  0  0  0  0  0  0  0  0  0
   70.5721   19.7790   53.1502 C   0  0  0  0  0  0  0  0  0  0  0  0
   69.9917   18.6758   52.5277 C   0  0  0  0  0  0  0  0  0  0  0  0
   69.8283   18.6708   51.1388 C   0  0  0  0  0  0  0  0  0  0  0  0
   70.7261   19.7560   54.5097 O   0  0  0  0  0  0  0  0  0  0  0  0
   69.8165   20.6650   55.1504 C   0  0  0  0  0  0  0  0  0  0  0  0
   70.5525   21.6190   56.0694 C   0  0  0  0  0  0  0  0  0  0  0  0
   71.7567   21.2575   56.6911 C   0  0  0  0  0  0  0  0  0  0  0  0
   72.3988   22.1402   57.5596 C   0  0  0  0  0  0  0  0  0  0  0  0
   71.8398   23.3900   57.8212 C   0  0  0  0  0  0  0  0  0  0  0  0
   70.6371   23.7580   57.2235 C   0  0  0  0  0  0  0  0  0  0  0  0
   69.9945   22.8754   56.3554 C   0  0  0  0  0  0  0  0  0  0  0  0
   65.3589   21.8363   49.2722 H   0  0  0  0  0  0  0  0  0  0  0  0
   63.2448   22.9856   48.8026 H   0  0  0  0  0  0  0  0  0  0  0  0
   62.4635   23.2892   46.4559 H   0  0  0  0  0  0  0  0  0  0  0  0
   65.8819   21.1653   45.0229 H   0  0  0  0  0  0  0  0  0  0  0  0
   71.5504   21.0277   46.6276 H   0  0  0  0  0  0  0  0  0  0  0  0
   73.1487   20.7121   44.7638 H   0  0  0  0  0  0  0  0  0  0  0  0
   72.5237   19.3407   42.7994 H   0  0  0  0  0  0  0  0  0  0  0  0
   70.3077   18.2448   42.6923 H   0  0  0  0  0  0  0  0  0  0  0  0
   68.6835   18.5679   44.5273 H   0  0  0  0  0  0  0  0  0  0  0  0
   71.0237   19.3078   48.4180 H   0  0  0  0  0  0  0  0  0  0  0  0
   71.1716   21.7173   50.4213 H   0  0  0  0  0  0  0  0  0  0  0  0
   71.4981   21.7073   52.8949 H   0  0  0  0  0  0  0  0  0  0  0  0
   69.6653   17.8290   53.1271 H   0  0  0  0  0  0  0  0  0  0  0  0
   69.3422   17.8278   50.6514 H   0  0  0  0  0  0  0  0  0  0  0  0
   69.2056   21.2303   54.4329 H   0  0  0  0  0  0  0  0  0  0  0  0
   69.1321   20.0634   55.7604 H   0  0  0  0  0  0  0  0  0  0  0  0
   72.1998   20.2843   56.4901 H   0  0  0  0  0  0  0  0  0  0  0  0
   73.3290   21.8530   58.0473 H   0  0  0  0  0  0  0  0  0  0  0  0
   72.3376   24.0732   58.5063 H   0  0  0  0  0  0  0  0  0  0  0  0
   70.1977   24.7282   57.4430 H   0  0  0  0  0  0  0  0  0  0  0  0
   69.0553   23.1737   55.8922 H   0  0  0  0  0  0  0  0  0  0  0  0
  1  2  1  0
  1  5  1  0
  1 22  2  0
  2  3  1  0
  2  6  2  0
  3  4  1  0
  3  7  1  0
  4  5  2  0
  5 13  1  0
  7  8  2  0
  7 12  1  0
  8  9  1  0
  8 37  1  0
  9 10  2  0
  9 38  1  0
 10 11  1  0
 10 39  1  0
 11 12  2  0
 11 19  1  0
 12 40  1  0
 13 14  2  0
 13 18  1  0
 14 15  1  0
 14 41  1  0
 15 16  2  0
 15 42  1  0
 16 17  1  0
 16 43  1  0
 17 18  2  0
 17 44  1  0
 18 45  1  0
 19 20  1  0
 19 21  2  0
 22 23  1  0
 22 46  1  0
 23 24  2  0
 23 28  1  0
 24 25  1  0
 24 47  1  0
 25 26  2  0
 25 48  1  0
 26 27  1  0
 26 29  1  0
 27 28  2  0
 27 49  1  0
 28 50  1  0
 29 30  1  0
 30 31  1  0
 30 51  1  0
 30 52  1  0
 31 32  2  0
 31 36  1  0
 32 33  1  0
 32 53  1  0
 33 34  2  0
 33 54  1  0
 34 35  1  0
 34 55  1  0
 35 36  2  0
 35 56  1  0
 36 57  1  0
M  CHG  1  20  -1
A    1
-0.12930523
A    2
0.40233022
A    3
-0.05128435
A    4
-0.30191302
A    5
0.18040337
A    6
-0.51405984
A    7
0.16887988
A    8
-0.19750439
A    9
-0.08638384
A   10
-0.13050435
A   11
-0.028123664
A   12
-0.24884303
A   13
0.038257286
A   14
-0.13948643
A   15
-0.11074991
A   16
-0.10233768
A   17
-0.1062605
A   18
-0.13389765
A   19
0.54209876
A   20
-0.5909664
A   21
-0.601926
A   22
-0.15230599
A   23
0.11248343
A   24
-0.13596088
A   25
-0.25074655
A   26
0.26737761
A   27
-0.26357427
A   28
-0.11438933
A   29
-0.2745937
A   30
-0.015901232
A   31
0.060849402
A   32
-0.16382082
A   33
-0.10105333
A   34
-0.090028614
A   35
-0.103558056
A   36
-0.15282859
A   37
0.12890974
A   38
0.12123796
A   39
0.12660177
A   40
0.123322286
A   41
0.12617467
A   42
0.12567347
A   43
0.12594455
A   44
0.11628424
A   45
0.12153924
A   46
0.119826704
A   47
0.11904507
A   48
0.13880955
A   49
0.13403895
A   50
0.12773536
A   51
0.07645491
A   52
0.08672363
A   53
0.12451297
A   54
0.11788368
A   55
0.12141618
A   56
0.12473351
A   57
0.11275898
M  END
>  <Name>  (24) 
ligand_129

>  <IC50 (nM)>  (24) 
15700

>  <charge>  (24) 
-1

$$$$
ligand_33
     RDKit          3D

 44 47  0  0  0  0  0  0  0  0999 V2000
   65.1388   21.8829   46.1804 C   0  0  0  0  0  0  0  0  0  0  0  0
   66.1828   21.5261   47.0348 C   0  0  0  0  0  0  0  0  0  0  0  0
   66.0707   21.8218   48.3991 C   0  0  0  0  0  0  0  0  0  0  0  0
   64.9337   22.4659   48.8915 C   0  0  0  0  0  0  0  0  0  0  0  0
   63.8963   22.8245   48.0390 C   0  0  0  0  0  0  0  0  0  0  0  0
   64.0065   22.5290   46.6843 C   0  0  0  0  0  0  0  0  0  0  0  0
   64.8188   22.8150   50.5729 Cl  0  0  0  0  0  0  0  0  0  0  0  0
   62.7268   22.9643   45.6169 Cl  0  0  0  0  0  0  0  0  0  0  0  0
   67.3582   20.8730   46.6118 N   0  0  0  0  0  0  0  0  0  0  0  0
   67.7221   20.5274   45.3182 C   0  0  0  0  0  0  0  0  0  0  0  0
   67.0819   20.7611   44.2949 O   0  0  0  0  0  0  0  0  0  0  0  0
   69.0441   19.7758   45.2514 C   0  0  0  0  0  0  0  0  0  0  0  0
   70.4391   20.9279   45.0888 S   0  0  0  0  0  0  0  0  0  0  0  0
   70.5751   21.5375   46.7502 C   0  0  0  0  0  0  0  0  0  0  0  0
   71.4018   23.1374   48.1673 C   0  0  0  0  0  0  0  0  0  0  0  0
   70.8884   22.4972   49.2641 C   0  0  0  0  0  0  0  0  0  0  0  0
   70.1992   21.3310   49.0077 C   0  0  0  0  0  0  0  0  0  0  0  0
   70.0114   20.8401   47.7557 N   0  0  0  0  0  0  0  0  0  0  0  0
   71.2624   22.6749   46.9144 N   0  0  0  0  0  0  0  0  0  0  0  0
   69.6090   20.5772   50.1142 C   0  0  0  0  0  0  0  0  0  0  0  0
   68.9741   20.2418   52.2350 C   0  0  0  0  0  0  0  0  0  0  0  0
   69.0621   19.3180   49.9780 C   0  0  0  0  0  0  0  0  0  0  0  0
   68.4574   18.7753   51.4838 S   0  0  0  0  0  0  0  0  0  0  0  0
   69.5533   21.0924   51.4036 N   0  0  0  0  0  0  0  0  0  0  0  0
   68.7929   20.4935   53.6840 C   0  0  0  0  0  0  0  0  0  0  0  0
   69.3739   21.6454   54.2486 C   0  0  0  0  0  0  0  0  0  0  0  0
   69.2443   21.9332   55.6097 C   0  0  0  0  0  0  0  0  0  0  0  0
   68.5237   21.0731   56.4312 C   0  0  0  0  0  0  0  0  0  0  0  0
   67.9389   19.9263   55.9030 C   0  0  0  0  0  0  0  0  0  0  0  0
   68.0710   19.6399   54.5397 C   0  0  0  0  0  0  0  0  0  0  0  0
   65.1801   21.6695   45.1179 H   0  0  0  0  0  0  0  0  0  0  0  0
   66.8643   21.5576   49.0918 H   0  0  0  0  0  0  0  0  0  0  0  0
   63.0120   23.3273   48.4200 H   0  0  0  0  0  0  0  0  0  0  0  0
   68.0513   20.6768   47.3301 H   0  0  0  0  0  0  0  0  0  0  0  0
   69.1621   19.1012   46.1051 H   0  0  0  0  0  0  0  0  0  0  0  0
   69.0207   19.1445   44.3564 H   0  0  0  0  0  0  0  0  0  0  0  0
   71.9606   24.0648   48.2600 H   0  0  0  0  0  0  0  0  0  0  0  0
   71.0217   22.8883   50.2644 H   0  0  0  0  0  0  0  0  0  0  0  0
   68.9916   18.6999   49.0944 H   0  0  0  0  0  0  0  0  0  0  0  0
   69.9353   22.3334   53.6185 H   0  0  0  0  0  0  0  0  0  0  0  0
   69.7078   22.8224   56.0339 H   0  0  0  0  0  0  0  0  0  0  0  0
   68.4216   21.2954   57.4904 H   0  0  0  0  0  0  0  0  0  0  0  0
   67.3854   19.2577   56.5621 H   0  0  0  0  0  0  0  0  0  0  0  0
   67.5902   18.7411   54.1623 H   0  0  0  0  0  0  0  0  0  0  0  0
  1  2  2  0
  1  6  1  0
  1 31  1  0
  2  3  1  0
  2  9  1  0
  3  4  2  0
  3 32  1  0
  4  5  1  0
  4  7  1  0
  5  6  2  0
  5 33  1  0
  6  8  1  0
  9 10  1  0
  9 34  1  0
 10 11  2  0
 10 12  1  0
 12 13  1  0
 12 35  1  0
 12 36  1  0
 13 14  1  0
 14 18  1  0
 14 19  2  0
 15 16  2  0
 15 19  1  0
 15 37  1  0
 16 17  1  0
 16 38  1  0
 17 18  2  0
 17 20  1  0
 20 22  2  0
 20 24  1  0
 21 23  1  0
 21 24  2  0
 21 25  1  0
 22 23  1  0
 22 39  1  0
 25 26  2  0
 25 30  1  0
 26 27  1  0
 26 40  1  0
 27 28  2  0
 27 41  1  0
 28 29  1  0
 28 42  1  0
 29 30  2  0
 29 43  1  0
 30 44  1  0
A    1
-0.32483712
A    2
0.3087422
A    3
-0.30426803
A    4
0.19383557
A    5
-0.27724558
A    6
0.18485175
A    7
-0.07454801
A    8
-0.073508754
A    9
-0.52896935
A   10
0.61351144
A   11
-0.50209147
A   12
-0.34848332
A   13
-0.038496416
A   14
0.35408667
A   15
0.09694662
A   16
-0.23379445
A   17
0.230309
A   18
-0.44602394
A   19
-0.40019733
A   20
0.1565331
A   21
0.1632878
A   22
-0.23077433
A   23
0.073720306
A   24
-0.37623316
A   25
0.032647487
A   26
-0.11964405
A   27
-0.08740943
A   28
-0.09657188
A   29
-0.09888384
A   30
-0.1185276
A   31
0.15122515
A   32
0.16914786
A   33
0.16692005
A   34
0.3087069
A   35
0.14544737
A   36
0.16976516
A   37
0.13079037
A   38
0.15326068
A   39
0.18462178
A   40
0.14027068
A   41
0.13114476
A   42
0.130243
A   43
0.14885081
A   44
0.14164163
M  END
>  <Name>  (25) 
ligand_33

>  <IC50 (nM)>  (25) 
3000

>  <charge>  (25) 
0

$$$$
ligand_124
     RDKit          3D

 59 63  0  0  0  0  0  0  0  0999 V2000
   71.6800   14.8286   60.1615 C   0  0  0  0  0  0  0  0  0  0  0  0
   73.0447   14.8089   60.4483 C   0  0  0  0  0  0  0  0  0  0  0  0
   73.9321   14.2601   59.5304 C   0  0  0  0  0  0  0  0  0  0  0  0
   73.4532   13.7426   58.3254 C   0  0  0  0  0  0  0  0  0  0  0  0
   72.0793   13.7656   58.0149 C   0  0  0  0  0  0  0  0  0  0  0  0
   71.1718   14.2991   58.9556 C   0  0  0  0  0  0  0  0  0  0  0  0
   71.6631   13.2621   56.7143 C   0  0  0  0  0  0  0  0  0  0  0  0
   70.7977   14.0526   56.0355 O   0  0  0  0  0  0  0  0  0  0  0  0
   70.4001   13.4051   54.8952 C   0  0  0  0  0  0  0  0  0  0  0  0
   71.1269   12.2262   54.8071 C   0  0  0  0  0  0  0  0  0  0  0  0
   71.9566   12.1507   55.9571 C   0  0  0  0  0  0  0  0  0  0  0  0
   69.3312   13.8961   54.1052 C   0  0  0  0  0  0  0  0  0  0  0  0
   69.1813   15.2055   53.8713 C   0  0  0  0  0  0  0  0  0  0  0  0
   70.1818   16.2960   54.0209 C   0  0  0  0  0  0  0  0  0  0  0  0
   69.4275   17.4447   53.7214 N   0  0  0  0  0  0  0  0  0  0  0  0
   68.1292   17.1838   53.2885 N   0  0  0  0  0  0  0  0  0  0  0  0
   67.9633   15.8934   53.4032 C   0  0  0  0  0  0  0  0  0  0  0  0
   71.3755   16.1741   54.2307 O   0  0  0  0  0  0  0  0  0  0  0  0
   69.8206   18.7929   53.8949 C   0  0  0  0  0  0  0  0  0  0  0  0
   71.0532   19.1330   54.4627 C   0  0  0  0  0  0  0  0  0  0  0  0
   71.3883   20.4676   54.7118 C   0  0  0  0  0  0  0  0  0  0  0  0
   70.4974   21.4993   54.3985 C   0  0  0  0  0  0  0  0  0  0  0  0
   69.2721   21.1655   53.8124 C   0  0  0  0  0  0  0  0  0  0  0  0
   68.9404   19.8312   53.5617 C   0  0  0  0  0  0  0  0  0  0  0  0
   66.6818   15.2362   53.1470 C   0  0  0  0  0  0  0  0  0  0  0  0
   69.6701   14.3088   58.7603 C   0  0  0  0  0  0  0  0  0  0  0  0
   69.1153   13.2538   58.3164 O   0  0  0  0  0  0  0  0  0  0  0  0
   69.0556   15.3608   59.1324 O   0  0  0  0  0  0  0  0  0  0  0  0
   66.0187   15.4976   51.9437 C   0  0  0  0  0  0  0  0  0  0  0  0
   64.7668   14.9307   51.7088 C   0  0  0  0  0  0  0  0  0  0  0  0
   64.1773   14.1229   52.6822 C   0  0  0  0  0  0  0  0  0  0  0  0
   64.8320   13.8800   53.8911 C   0  0  0  0  0  0  0  0  0  0  0  0
   66.0845   14.4427   54.1313 C   0  0  0  0  0  0  0  0  0  0  0  0
   70.8173   22.9470   54.7055 C   0  0  0  0  0  0  0  0  0  0  0  0
   70.9304   23.1887   56.2129 C   0  0  0  0  0  0  0  0  0  0  0  0
   72.0831   23.4155   53.9825 C   0  0  0  0  0  0  0  0  0  0  0  0
   70.9777   15.2521   60.8788 H   0  0  0  0  0  0  0  0  0  0  0  0
   73.4046   15.2139   61.3891 H   0  0  0  0  0  0  0  0  0  0  0  0
   74.9954   14.2375   59.7458 H   0  0  0  0  0  0  0  0  0  0  0  0
   74.1602   13.3330   57.6085 H   0  0  0  0  0  0  0  0  0  0  0  0
   71.0349   11.4835   54.0282 H   0  0  0  0  0  0  0  0  0  0  0  0
   72.6284   11.3545   56.2395 H   0  0  0  0  0  0  0  0  0  0  0  0
   68.5489   13.1840   53.8743 H   0  0  0  0  0  0  0  0  0  0  0  0
   71.7674   18.3720   54.7646 H   0  0  0  0  0  0  0  0  0  0  0  0
   72.3459   20.6818   55.1809 H   0  0  0  0  0  0  0  0  0  0  0  0
   68.5493   21.9379   53.5631 H   0  0  0  0  0  0  0  0  0  0  0  0
   67.9685   19.6108   53.1265 H   0  0  0  0  0  0  0  0  0  0  0  0
   66.4742   16.1476   51.2013 H   0  0  0  0  0  0  0  0  0  0  0  0
   64.2424   15.1254   50.7768 H   0  0  0  0  0  0  0  0  0  0  0  0
   63.1958   13.6923   52.5069 H   0  0  0  0  0  0  0  0  0  0  0  0
   64.3613   13.2660   54.6561 H   0  0  0  0  0  0  0  0  0  0  0  0
   66.5659   14.2841   55.0966 H   0  0  0  0  0  0  0  0  0  0  0  0
   69.9921   23.5727   54.3395 H   0  0  0  0  0  0  0  0  0  0  0  0
   71.0826   24.2532   56.4218 H   0  0  0  0  0  0  0  0  0  0  0  0
   71.7698   22.6398   56.6536 H   0  0  0  0  0  0  0  0  0  0  0  0
   70.0172   22.8731   56.7297 H   0  0  0  0  0  0  0  0  0  0  0  0
   72.2447   24.4865   54.1457 H   0  0  0  0  0  0  0  0  0  0  0  0
   72.0013   23.2496   52.9025 H   0  0  0  0  0  0  0  0  0  0  0  0
   72.9763   22.8883   54.3348 H   0  0  0  0  0  0  0  0  0  0  0  0
  1  2  2  0
  1  6  1  0
  1 37  1  0
  2  3  1  0
  2 38  1  0
  3  4  2  0
  3 39  1  0
  4  5  1  0
  4 40  1  0
  5  6  2  0
  5  7  1  0
  6 26  1  0
  7  8  1  0
  7 11  2  0
  8  9  1  0
  9 10  2  0
  9 12  1  0
 10 11  1  0
 10 41  1  0
 11 42  1  0
 12 13  2  0
 12 43  1  0
 13 14  1  0
 13 17  1  0
 14 15  1  0
 14 18  2  0
 15 16  1  0
 15 19  1  0
 16 17  2  0
 17 25  1  0
 19 20  2  0
 19 24  1  0
 20 21  1  0
 20 44  1  0
 21 22  2  0
 21 45  1  0
 22 23  1  0
 22 34  1  0
 23 24  2  0
 23 46  1  0
 24 47  1  0
 25 29  2  0
 25 33  1  0
 26 27  2  0
 26 28  1  0
 29 30  1  0
 29 48  1  0
 30 31  2  0
 30 49  1  0
 31 32  1  0
 31 50  1  0
 32 33  2  0
 32 51  1  0
 33 52  1  0
 34 35  1  0
 34 36  1  0
 34 53  1  0
 35 54  1  0
 35 55  1  0
 35 56  1  0
 36 57  1  0
 36 58  1  0
 36 59  1  0
M  CHG  1  28  -1
A    1
-0.121663004
A    2
-0.103482015
A    3
-0.10471545
A    4
-0.13246267
A    5
-0.012227617
A    6
-0.09190307
A    7
0.22581995
A    8
-0.22364421
A    9
0.25447768
A   10
-0.23698518
A   11
-0.24949186
A   12
-0.2081032
A   13
-0.0860743
A   14
0.43111873
A   15
-0.027302003
A   16
-0.32654747
A   17
0.15050562
A   18
-0.5201073
A   19
0.1578722
A   20
-0.20127034
A   21
-0.13396765
A   22
0.07225847
A   23
-0.14152065
A   24
-0.20259672
A   25
0.047025345
A   26
0.5370392
A   27
-0.52146727
A   28
-0.59725153
A   29
-0.14520118
A   30
-0.09344455
A   31
-0.1066923
A   32
-0.09776248
A   33
-0.12652151
A   34
0.0717301
A   35
-0.41959128
A   36
-0.42214084
A   37
0.13048649
A   38
0.12777174
A   39
0.12755378
A   40
0.12934111
A   41
0.16731179
A   42
0.15433423
A   43
0.14064185
A   44
0.13755646
A   45
0.12623948
A   46
0.12300365
A   47
0.13660316
A   48
0.12837894
A   49
0.12587164
A   50
0.1209537
A   51
0.12149547
A   52
0.123902276
A   53
0.046519544
A   54
0.090395585
A   55
0.09836957
A   56
0.09682991
A   57
0.085334666
A   58
0.08350879
A   59
0.083886415
M  END
>  <Name>  (26) 
ligand_124

>  <IC50 (nM)>  (26) 
11700

>  <charge>  (26) 
-1

$$$$
ligand_106
     RDKit          3D

 45 48  0  0  0  0  0  0  0  0999 V2000
   68.7328   20.9616   53.6065 C   0  0  0  0  0  0  0  0  0  0  0  0
   68.6112   20.0320   52.5783 C   0  0  0  0  0  0  0  0  0  0  0  0
   68.8927   18.6908   52.7957 C   0  0  0  0  0  0  0  0  0  0  0  0
   69.1907   20.5470   54.8596 C   0  0  0  0  0  0  0  0  0  0  0  0
   69.5129   19.2010   55.0883 C   0  0  0  0  0  0  0  0  0  0  0  0
   69.3431   18.2834   54.0495 C   0  0  0  0  0  0  0  0  0  0  0  0
   69.5829   16.9427   54.1751 O   0  0  0  0  0  0  0  0  0  0  0  0
   69.8769   16.4443   55.4254 C   0  0  0  0  0  0  0  0  0  0  0  0
   70.1199   17.1999   56.5126 C   0  0  0  0  0  0  0  0  0  0  0  0
   70.0214   18.6870   56.3835 C   0  0  0  0  0  0  0  0  0  0  0  0
   69.8642   14.9740   55.4475 C   0  0  0  0  0  0  0  0  0  0  0  0
   70.7696   14.2380   54.6650 C   0  0  0  0  0  0  0  0  0  0  0  0
   70.7051   12.8422   54.6306 C   0  0  0  0  0  0  0  0  0  0  0  0
   68.9014   14.2979   56.2088 C   0  0  0  0  0  0  0  0  0  0  0  0
   70.4616   16.6901   57.7532 O   0  0  0  0  0  0  0  0  0  0  0  0
   70.3558   19.4147   57.3113 O   0  0  0  0  0  0  0  0  0  0  0  0
   69.2915   21.4732   55.8560 O   0  0  0  0  0  0  0  0  0  0  0  0
   68.1197   20.4411   51.3736 O   0  0  0  0  0  0  0  0  0  0  0  0
   68.8562   12.9126   56.1802 C   0  0  0  0  0  0  0  0  0  0  0  0
   69.7306   12.1920   55.3737 C   0  0  0  0  0  0  0  0  0  0  0  0
   69.1652   20.5195   50.3935 C   0  0  0  0  0  0  0  0  0  0  0  0
   68.5467   20.8241   49.0495 C   0  0  0  0  0  0  0  0  0  0  0  0
   69.0650   21.8333   48.2229 C   0  0  0  0  0  0  0  0  0  0  0  0
   68.4975   22.0901   46.9704 C   0  0  0  0  0  0  0  0  0  0  0  0
   67.4112   21.3338   46.5310 C   0  0  0  0  0  0  0  0  0  0  0  0
   66.8993   20.3233   47.3433 C   0  0  0  0  0  0  0  0  0  0  0  0
   67.4613   20.0635   48.5899 C   0  0  0  0  0  0  0  0  0  0  0  0
   67.9354   12.2821   56.9620 O   0  0  0  0  0  0  0  0  0  0  0  0
   69.6095   10.8392   55.2577 O   0  0  0  0  0  0  0  0  0  0  0  0
   65.5644   19.3840   46.7982 Cl  0  0  0  0  0  0  0  0  0  0  0  0
   68.4626   21.9966   53.4192 H   0  0  0  0  0  0  0  0  0  0  0  0
   68.7447   17.9606   52.0050 H   0  0  0  0  0  0  0  0  0  0  0  0
   71.5090   14.7520   54.0531 H   0  0  0  0  0  0  0  0  0  0  0  0
   71.3841   12.2709   54.0028 H   0  0  0  0  0  0  0  0  0  0  0  0
   68.1802   14.8427   56.8142 H   0  0  0  0  0  0  0  0  0  0  0  0
   70.6051   15.7338   57.6742 H   0  0  0  0  0  0  0  0  0  0  0  0
   69.0687   22.3623   55.5347 H   0  0  0  0  0  0  0  0  0  0  0  0
   69.7156   19.5736   50.3114 H   0  0  0  0  0  0  0  0  0  0  0  0
   69.8639   21.3160   50.6790 H   0  0  0  0  0  0  0  0  0  0  0  0
   69.9137   22.4290   48.5533 H   0  0  0  0  0  0  0  0  0  0  0  0
   68.8986   22.8799   46.3381 H   0  0  0  0  0  0  0  0  0  0  0  0
   66.9694   21.5372   45.5585 H   0  0  0  0  0  0  0  0  0  0  0  0
   67.0506   19.2716   49.2130 H   0  0  0  0  0  0  0  0  0  0  0  0
   68.3334   11.4459   57.2776 H   0  0  0  0  0  0  0  0  0  0  0  0
   68.6554   10.6527   55.3269 H   0  0  0  0  0  0  0  0  0  0  0  0
  1  2  2  0
  1  4  1  0
  1 31  1  0
  2  3  1  0
  2 18  1  0
  3  6  2  0
  3 32  1  0
  4  5  2  0
  4 17  1  0
  5  6  1  0
  5 10  1  0
  6  7  1  0
  7  8  1  0
  8  9  2  0
  8 11  1  0
  9 10  1  0
  9 15  1  0
 10 16  2  0
 11 12  2  0
 11 14  1  0
 12 13  1  0
 12 33  1  0
 13 20  2  0
 13 34  1  0
 14 19  2  0
 14 35  1  0
 15 36  1  0
 17 37  1  0
 18 21  1  0
 19 20  1  0
 19 28  1  0
 20 29  1  0
 21 22  1  0
 21 38  1  0
 21 39  1  0
 22 23  2  0
 22 27  1  0
 23 24  1  0
 23 40  1  0
 24 25  2  0
 24 41  1  0
 25 26  1  0
 25 42  1  0
 26 27  2  0
 26 30  1  0
 27 43  1  0
 28 44  1  0
 29 45  1  0
A    1
-0.38401172
A    2
0.32653883
A    3
-0.38675278
A    4
0.3861265
A    5
-0.27455997
A    6
0.29673025
A    7
-0.20026734
A    8
0.13221553
A    9
0.13830976
A   10
0.3309829
A   11
0.04395648
A   12
-0.105185196
A   13
-0.2736207
A   14
-0.26896462
A   15
-0.48744276
A   16
-0.4891091
A   17
-0.5228333
A   18
-0.22227171
A   19
0.2249332
A   20
0.29761666
A   21
-0.03612654
A   22
0.08501515
A   23
-0.14773421
A   24
-0.090683505
A   25
-0.18820557
A   26
0.15422308
A   27
-0.25882238
A   28
-0.49825406
A   29
-0.57011515
A   30
-0.101902805
A   31
0.16809377
A   32
0.17611599
A   33
0.13156065
A   34
0.1479312
A   35
0.14608671
A   36
0.41482756
A   37
0.3970767
A   38
0.08974579
A   39
0.09389596
A   40
0.13217163
A   41
0.12004964
A   42
0.14391802
A   43
0.13732015
A   44
0.40503636
A   45
0.38638505
M  END
>  <Name>  (27) 
ligand_106

>  <IC50 (nM)>  (27) 
5200

>  <charge>  (27) 
0

$$$$
ligand_101
     RDKit          3D

 36 37  0  0  0  0  0  0  0  0999 V2000
   66.9561   19.7367   53.0257 C   0  0  0  0  0  0  0  0  0  0  0  0
   67.6917   20.5151   52.1288 C   0  0  0  0  0  0  0  0  0  0  0  0
   68.3464   19.9405   51.0323 C   0  0  0  0  0  0  0  0  0  0  0  0
   68.2804   18.5482   50.8976 C   0  0  0  0  0  0  0  0  0  0  0  0
   67.5290   17.7510   51.7837 C   0  0  0  0  0  0  0  0  0  0  0  0
   66.8611   18.3577   52.8461 C   0  0  0  0  0  0  0  0  0  0  0  0
   67.4542   16.2829   51.5063 C   0  0  0  0  0  0  0  0  0  0  0  0
   66.2466   15.4951   51.9416 C   0  0  0  0  0  0  0  0  0  0  0  0
   68.3380   15.7683   50.8160 O   0  0  0  0  0  0  0  0  0  0  0  0
   66.1654   15.1746   53.4038 C   0  0  0  0  0  0  0  0  0  0  0  0
   64.7994   15.3154   54.0716 C   0  0  0  0  0  0  0  0  0  0  0  0
   67.1192   14.8291   54.1001 O   0  0  0  0  0  0  0  0  0  0  0  0
   64.1088   16.2964   53.6436 O   0  0  0  0  0  0  0  0  0  0  0  0
   64.4711   14.4601   54.9504 O   0  0  0  0  0  0  0  0  0  0  0  0
   68.9842   20.7717   50.1234 N   0  0  0  0  0  0  0  0  0  0  0  0
   69.1256   20.4737   48.7078 C   0  0  0  0  0  0  0  0  0  0  0  0
   67.8644   20.8634   47.9643 C   0  0  0  0  0  0  0  0  0  0  0  0
   67.7596   22.0986   47.3008 C   0  0  0  0  0  0  0  0  0  0  0  0
   66.5573   22.4660   46.6880 C   0  0  0  0  0  0  0  0  0  0  0  0
   65.4589   21.6045   46.7396 C   0  0  0  0  0  0  0  0  0  0  0  0
   65.5523   20.3723   47.3742 C   0  0  0  0  0  0  0  0  0  0  0  0
   66.7521   20.0032   47.9802 C   0  0  0  0  0  0  0  0  0  0  0  0
   63.9762   22.0721   45.9994 Cl  0  0  0  0  0  0  0  0  0  0  0  0
   66.4369   20.2052   53.8583 H   0  0  0  0  0  0  0  0  0  0  0  0
   67.7204   21.5909   52.2806 H   0  0  0  0  0  0  0  0  0  0  0  0
   68.8034   18.0544   50.0834 H   0  0  0  0  0  0  0  0  0  0  0  0
   66.2643   17.7924   53.5547 H   0  0  0  0  0  0  0  0  0  0  0  0
   66.2533   14.5376   51.4063 H   0  0  0  0  0  0  0  0  0  0  0  0
   65.3567   16.0256   51.5894 H   0  0  0  0  0  0  0  0  0  0  0  0
   69.0389   21.7516   50.3707 H   0  0  0  0  0  0  0  0  0  0  0  0
   69.9657   21.0602   48.3162 H   0  0  0  0  0  0  0  0  0  0  0  0
   69.3855   19.4285   48.5093 H   0  0  0  0  0  0  0  0  0  0  0  0
   68.6038   22.7849   47.2717 H   0  0  0  0  0  0  0  0  0  0  0  0
   66.4788   23.4264   46.1847 H   0  0  0  0  0  0  0  0  0  0  0  0
   64.6989   19.7011   47.4163 H   0  0  0  0  0  0  0  0  0  0  0  0
   66.8064   19.0445   48.4920 H   0  0  0  0  0  0  0  0  0  0  0  0
  1  2  2  0
  1  6  1  0
  1 24  1  0
  2  3  1  0
  2 25  1  0
  3  4  2  0
  3 15  1  0
  4  5  1  0
  4 26  1  0
  5  6  2  0
  5  7  1  0
  6 27  1  0
  7  8  1  0
  7  9  2  0
  8 10  1  0
  8 28  1  0
  8 29  1  0
 10 11  1  0
 10 12  2  0
 11 13  2  0
 11 14  1  0
 15 16  1  0
 15 30  1  0
 16 17  1  0
 16 31  1  0
 16 32  1  0
 17 18  2  0
 17 22  1  0
 18 19  1  0
 18 33  1  0
 19 20  2  0
 19 34  1  0
 20 21  1  0
 20 23  1  0
 21 22  2  0
 21 35  1  0
 22 36  1  0
M  CHG  1  14  -1
A    1
-0.08561035
A    2
-0.26713035
A    3
0.28328502
A    4
-0.28829625
A    5
-0.0069011524
A    6
-0.12719527
A    7
0.43162975
A    8
-0.43304572
A    9
-0.5399455
A   10
0.33337185
A   11
0.49867356
A   12
-0.45788854
A   13
-0.5261263
A   14
-0.5164678
A   15
-0.44977382
A   16
-0.042788442
A   17
0.06631114
A   18
-0.1454421
A   19
-0.16561991
A   20
0.13357717
A   21
-0.16680084
A   22
-0.14183566
A   23
-0.09673995
A   24
0.11379283
A   25
0.13762124
A   26
0.12724109
A   27
0.1269774
A   28
0.13680905
A   29
0.14078364
A   30
0.2619192
A   31
0.08196609
A   32
0.06689837
A   33
0.12521556
A   34
0.13456857
A   35
0.13357961
A   36
0.12338667
M  END
>  <Name>  (28) 
ligand_101

>  <IC50 (nM)>  (28) 
11000

>  <charge>  (28) 
-1

$$$$
ligand_53
     RDKit          3D

 41 42  0  0  0  0  0  0  0  0999 V2000
   69.6026   20.2657   53.2584 C   0  0  0  0  0  0  0  0  0  0  0  0
   70.4661   21.3586   53.4369 C   0  0  0  0  0  0  0  0  0  0  0  0
   70.5299   21.9993   54.6793 C   0  0  0  0  0  0  0  0  0  0  0  0
   69.7393   21.5521   55.7424 C   0  0  0  0  0  0  0  0  0  0  0  0
   68.8844   20.4576   55.5527 C   0  0  0  0  0  0  0  0  0  0  0  0
   68.8022   19.8077   54.3097 C   0  0  0  0  0  0  0  0  0  0  0  0
   71.2926   23.8292   55.9048 O   0  0  0  0  0  0  0  0  0  0  0  0
   72.1525   23.4922   53.9245 O   0  0  0  0  0  0  0  0  0  0  0  0
   67.8748   18.7480   54.1988 N   0  0  0  0  0  0  0  0  0  0  0  0
   67.6061   17.9537   53.0880 C   0  0  0  0  0  0  0  0  0  0  0  0
   68.2335   17.9707   52.0327 O   0  0  0  0  0  0  0  0  0  0  0  0
   66.3701   17.0707   53.2760 C   0  0  0  0  0  0  0  0  0  0  0  0
   66.6755   15.3171   52.9071 S   0  0  0  0  0  0  0  0  0  0  0  0
   67.7834   14.8871   54.2234 C   0  0  0  0  0  0  0  0  0  0  0  0
   69.2049   13.3427   55.1497 C   0  0  0  0  0  0  0  0  0  0  0  0
   69.0318   15.4965   56.0390 C   0  0  0  0  0  0  0  0  0  0  0  0
   69.6389   14.2622   56.0890 C   0  0  0  0  0  0  0  0  0  0  0  0
   68.2702   13.6316   54.2230 N   0  0  0  0  0  0  0  0  0  0  0  0
   68.0960   15.8332   55.1281 N   0  0  0  0  0  0  0  0  0  0  0  0
   69.7447   12.0789   55.0317 N   0  0  0  0  0  0  0  0  0  0  0  0
   70.6455   13.9288   57.1098 C   0  0  0  0  0  0  0  0  0  0  0  0
   70.9050   12.7904   57.4679 O   0  0  0  0  0  0  0  0  0  0  0  0
   71.2193   15.0634   57.5846 O   0  0  0  0  0  0  0  0  0  0  0  0
   72.2348   14.8400   58.5726 C   0  0  0  0  0  0  0  0  0  0  0  0
   72.7854   16.1878   58.9956 C   0  0  0  0  0  0  0  0  0  0  0  0
   71.3986   23.1652   54.8573 N   0  0  0  0  0  0  0  0  0  0  0  0
   69.5705   19.8013   52.2763 H   0  0  0  0  0  0  0  0  0  0  0  0
   71.0621   21.7068   52.5937 H   0  0  0  0  0  0  0  0  0  0  0  0
   69.7640   22.0538   56.7091 H   0  0  0  0  0  0  0  0  0  0  0  0
   68.2695   20.1328   56.3893 H   0  0  0  0  0  0  0  0  0  0  0  0
   67.3634   18.5177   55.0422 H   0  0  0  0  0  0  0  0  0  0  0  0
   65.9447   17.1690   54.2798 H   0  0  0  0  0  0  0  0  0  0  0  0
   65.6100   17.4363   52.5768 H   0  0  0  0  0  0  0  0  0  0  0  0
   69.2793   16.2845   56.7448 H   0  0  0  0  0  0  0  0  0  0  0  0
   69.3356   11.4948   54.3085 H   0  0  0  0  0  0  0  0  0  0  0  0
   70.0745   11.5873   55.8622 H   0  0  0  0  0  0  0  0  0  0  0  0
   71.8003   14.3286   59.4388 H   0  0  0  0  0  0  0  0  0  0  0  0
   73.0376   14.2284   58.1458 H   0  0  0  0  0  0  0  0  0  0  0  0
   73.5650   16.0707   59.7534 H   0  0  0  0  0  0  0  0  0  0  0  0
   71.9884   16.8192   59.4022 H   0  0  0  0  0  0  0  0  0  0  0  0
   73.2050   16.7198   58.1353 H   0  0  0  0  0  0  0  0  0  0  0  0
  1  2  2  0
  1  6  1  0
  1 27  1  0
  2  3  1  0
  2 28  1  0
  3  4  2  0
  3 26  1  0
  4  5  1  0
  4 29  1  0
  5  6  2  0
  5 30  1  0
  6  9  1  0
  7 26  2  0
  8 26  1  0
  9 10  1  0
  9 31  1  0
 10 11  2  0
 10 12  1  0
 12 13  1  0
 12 32  1  0
 12 33  1  0
 13 14  1  0
 14 18  2  0
 14 19  1  0
 15 17  2  0
 15 18  1  0
 15 20  1  0
 16 17  1  0
 16 19  2  0
 16 34  1  0
 17 21  1  0
 20 35  1  0
 20 36  1  0
 21 22  2  0
 21 23  1  0
 23 24  1  0
 24 25  1  0
 24 37  1  0
 24 38  1  0
 25 39  1  0
 25 40  1  0
 25 41  1  0
M  CHG  2   8  -1  26   1
A    1
-0.21348701
A    2
-0.09229723
A    3
0.021565966
A    4
-0.107794985
A    5
-0.21357065
A    6
0.29155073
A    7
-0.34862933
A    8
-0.3543894
A    9
-0.5239915
A   10
0.59474325
A   11
-0.48930556
A   12
-0.30963698
A   13
-0.042928368
A   14
0.38389683
A   15
0.5058787
A   16
0.11954349
A   17
-0.26349023
A   18
-0.5370433
A   19
-0.44049916
A   20
-0.6493096
A   21
0.5852911
A   22
-0.50342524
A   23
-0.3087912
A   24
0.06501309
A   25
-0.37501323
A   26
0.58270514
A   27
0.14936937
A   28
0.15580098
A   29
0.15952407
A   30
0.1555077
A   31
0.33954743
A   32
0.17298652
A   33
0.168431
A   34
0.13117662
A   35
0.35549897
A   36
0.3559676
A   37
0.07849676
A   38
0.07625404
A   39
0.10679935
A   40
0.11513316
A   41
0.102921
M  END
>  <Name>  (29) 
ligand_53

>  <IC50 (nM)>  (29) 
250000

>  <charge>  (29) 
0

$$$$
ligand_50
     RDKit          3D

 43 44  0  0  0  0  0  0  0  0999 V2000
   65.8965   22.2730   46.4208 C   0  0  0  0  0  0  0  0  0  0  0  0
   67.2022   21.9578   46.0185 C   0  0  0  0  0  0  0  0  0  0  0  0
   68.0627   21.2727   46.8833 C   0  0  0  0  0  0  0  0  0  0  0  0
   67.6400   20.8920   48.1637 C   0  0  0  0  0  0  0  0  0  0  0  0
   66.3404   21.2033   48.5619 C   0  0  0  0  0  0  0  0  0  0  0  0
   65.4766   21.8912   47.7011 C   0  0  0  0  0  0  0  0  0  0  0  0
   65.0003   23.0502   45.4952 C   0  0  0  0  0  0  0  0  0  0  0  0
   65.2786   24.3889   45.4949 F   0  0  0  0  0  0  0  0  0  0  0  0
   65.1256   22.6672   44.1891 F   0  0  0  0  0  0  0  0  0  0  0  0
   63.6689   22.9569   45.7732 F   0  0  0  0  0  0  0  0  0  0  0  0
   68.3998   19.7773   50.2829 C   0  0  0  0  0  0  0  0  0  0  0  0
   68.5719   20.2102   48.9731 N   0  0  0  0  0  0  0  0  0  0  0  0
   67.4021   19.9567   50.9759 O   0  0  0  0  0  0  0  0  0  0  0  0
   69.6242   19.0498   50.8236 C   0  0  0  0  0  0  0  0  0  0  0  0
   70.3474   20.0149   52.1811 S   0  0  0  0  0  0  0  0  0  0  0  0
   69.6437   19.2134   53.5479 C   0  0  0  0  0  0  0  0  0  0  0  0
   68.7310   17.4564   54.6915 C   0  0  0  0  0  0  0  0  0  0  0  0
   68.7199   18.1298   55.8537 C   0  0  0  0  0  0  0  0  0  0  0  0
   69.3005   19.4779   55.8900 C   0  0  0  0  0  0  0  0  0  0  0  0
   69.6596   19.9801   54.6731 N   0  0  0  0  0  0  0  0  0  0  0  0
   69.2538   17.9853   53.5244 N   0  0  0  0  0  0  0  0  0  0  0  0
   69.4471   20.0755   56.9495 O   0  0  0  0  0  0  0  0  0  0  0  0
   68.1273   16.0509   54.6191 C   0  0  0  0  0  0  0  0  0  0  0  0
   67.2191   16.0101   53.5044 O   0  0  0  0  0  0  0  0  0  0  0  0
   66.5054   14.7799   53.4702 C   0  0  0  0  0  0  0  0  0  0  0  0
   69.1546   15.0650   54.4654 O   0  0  0  0  0  0  0  0  0  0  0  0
   69.8087   14.7478   55.6823 C   0  0  0  0  0  0  0  0  0  0  0  0
   67.5527   22.2541   45.0274 H   0  0  0  0  0  0  0  0  0  0  0  0
   69.0713   21.0550   46.5413 H   0  0  0  0  0  0  0  0  0  0  0  0
   65.9612   20.9283   49.5418 H   0  0  0  0  0  0  0  0  0  0  0  0
   64.4733   22.1236   48.0539 H   0  0  0  0  0  0  0  0  0  0  0  0
   69.4729   20.0372   48.5460 H   0  0  0  0  0  0  0  0  0  0  0  0
   69.3369   18.0322   51.0999 H   0  0  0  0  0  0  0  0  0  0  0  0
   70.3921   18.9557   50.0495 H   0  0  0  0  0  0  0  0  0  0  0  0
   68.3190   17.7387   56.7774 H   0  0  0  0  0  0  0  0  0  0  0  0
   70.0413   20.9117   54.6410 H   0  0  0  0  0  0  0  0  0  0  0  0
   67.5453   15.8425   55.5276 H   0  0  0  0  0  0  0  0  0  0  0  0
   65.8091   14.8146   52.6276 H   0  0  0  0  0  0  0  0  0  0  0  0
   65.9283   14.6413   54.3896 H   0  0  0  0  0  0  0  0  0  0  0  0
   67.1850   13.9363   53.3174 H   0  0  0  0  0  0  0  0  0  0  0  0
   70.5321   13.9523   55.4836 H   0  0  0  0  0  0  0  0  0  0  0  0
   69.0914   14.3825   56.4238 H   0  0  0  0  0  0  0  0  0  0  0  0
   70.3519   15.6117   56.0749 H   0  0  0  0  0  0  0  0  0  0  0  0
  1  2  2  0
  1  6  1  0
  1  7  1  0
  2  3  1  0
  2 28  1  0
  3  4  2  0
  3 29  1  0
  4  5  1  0
  4 12  1  0
  5  6  2  0
  5 30  1  0
  6 31  1  0
  7  8  1  0
  7  9  1  0
  7 10  1  0
 11 12  1  0
 11 13  2  0
 11 14  1  0
 12 32  1  0
 14 15  1  0
 14 33  1  0
 14 34  1  0
 15 16  1  0
 16 20  1  0
 16 21  2  0
 17 18  2  0
 17 21  1  0
 17 23  1  0
 18 19  1  0
 18 35  1  0
 19 20  1  0
 19 22  2  0
 20 36  1  0
 23 24  1  0
 23 26  1  0
 23 37  1  0
 24 25  1  0
 25 38  1  0
 25 39  1  0
 25 40  1  0
 26 27  1  0
 27 41  1  0
 27 42  1  0
 27 43  1  0
A    1
-0.14732613
A    2
-0.082647584
A    3
-0.21675372
A    4
0.32010925
A    5
-0.2282943
A    6
-0.07452571
A    7
0.7223073
A    8
-0.21798293
A    9
-0.20863833
A   10
-0.22250156
A   11
0.6470839
A   12
-0.5191581
A   13
-0.49825385
A   14
-0.3154365
A   15
-0.025305122
A   16
0.37381902
A   17
0.22819829
A   18
-0.43651673
A   19
0.6038154
A   20
-0.4297384
A   21
-0.48417395
A   22
-0.5442248
A   23
0.23446581
A   24
-0.28649813
A   25
-0.15756777
A   26
-0.2964541
A   27
-0.1603883
A   28
0.14405647
A   29
0.15237185
A   30
0.15229397
A   31
0.14006741
A   32
0.3415984
A   33
0.15198818
A   34
0.15977558
A   35
0.16714554
A   36
0.37024477
A   37
0.055272505
A   38
0.10126101
A   39
0.09714444
A   40
0.098534435
A   41
0.10102716
A   42
0.0958459
A   43
0.09395947
M  END
>  <Name>  (30) 
ligand_50

>  <IC50 (nM)>  (30) 
200000

>  <charge>  (30) 
0

$$$$
ligand_64
     RDKit          3D

 30 31  0  0  0  0  0  0  0  0999 V2000
   70.6672   20.0489   54.2908 C   0  0  0  0  0  0  0  0  0  0  0  0
   70.4959   21.3671   54.7180 C   0  0  0  0  0  0  0  0  0  0  0  0
   69.6042   21.6548   55.7513 C   0  0  0  0  0  0  0  0  0  0  0  0
   68.8747   20.6332   56.3612 C   0  0  0  0  0  0  0  0  0  0  0  0
   69.0329   19.3131   55.9320 C   0  0  0  0  0  0  0  0  0  0  0  0
   69.9211   19.0296   54.8877 C   0  0  0  0  0  0  0  0  0  0  0  0
   69.4103   23.2793   56.2854 Cl  0  0  0  0  0  0  0  0  0  0  0  0
   70.1387   17.3441   54.3709 S   0  0  0  0  0  0  0  0  0  0  0  0
   70.3051   16.5710   55.5890 O   0  0  0  0  0  0  0  0  0  0  0  0
   71.1631   17.2922   53.3477 O   0  0  0  0  0  0  0  0  0  0  0  0
   68.6286   16.7892   53.6158 C   0  0  0  0  0  0  0  0  0  0  0  0
   68.3480   16.9881   52.2636 C   0  0  0  0  0  0  0  0  0  0  0  0
   67.7442   16.0187   54.3846 C   0  0  0  0  0  0  0  0  0  0  0  0
   66.3054   15.6785   52.4456 C   0  0  0  0  0  0  0  0  0  0  0  0
   67.1931   16.4452   51.6751 C   0  0  0  0  0  0  0  0  0  0  0  0
   66.5890   15.4802   53.8062 C   0  0  0  0  0  0  0  0  0  0  0  0
   69.1877   17.8084   51.4140 N   0  0  0  0  0  0  0  0  0  0  0  0
   69.6573   17.2758   50.4024 O   0  0  0  0  0  0  0  0  0  0  0  0
   69.2953   18.9982   51.7317 O   0  0  0  0  0  0  0  0  0  0  0  0
   65.0492   15.1083   51.8266 C   0  0  0  0  0  0  0  0  0  0  0  0
   64.0316   16.0101   51.8156 F   0  0  0  0  0  0  0  0  0  0  0  0
   65.2261   14.7207   50.5338 F   0  0  0  0  0  0  0  0  0  0  0  0
   64.5791   14.0132   52.4837 F   0  0  0  0  0  0  0  0  0  0  0  0
   71.3714   19.8347   53.4885 H   0  0  0  0  0  0  0  0  0  0  0  0
   71.0615   22.1615   54.2392 H   0  0  0  0  0  0  0  0  0  0  0  0
   68.1903   20.8597   57.1753 H   0  0  0  0  0  0  0  0  0  0  0  0
   68.4786   18.5202   56.4286 H   0  0  0  0  0  0  0  0  0  0  0  0
   67.9485   15.8126   55.4355 H   0  0  0  0  0  0  0  0  0  0  0  0
   66.9823   16.6174   50.6181 H   0  0  0  0  0  0  0  0  0  0  0  0
   65.9139   14.8856   54.4240 H   0  0  0  0  0  0  0  0  0  0  0  0
  1  2  2  0
  1  6  1  0
  1 24  1  0
  2  3  1  0
  2 25  1  0
  3  4  2  0
  3  7  1  0
  4  5  1  0
  4 26  1  0
  5  6  2  0
  5 27  1  0
  6  8  1  0
  8  9  2  0
  8 10  2  0
  8 11  1  0
 11 12  2  0
 11 13  1  0
 12 15  1  0
 12 17  1  0
 13 16  2  0
 13 28  1  0
 14 15  2  0
 14 16  1  0
 14 20  1  0
 15 29  1  0
 16 30  1  0
 17 18  2  0
 17 19  1  0
 20 21  1  0
 20 22  1  0
 20 23  1  0
M  CHG  2  17   1  19  -1
A    1
-0.07038481
A    2
-0.16817237
A    3
0.15692224
A    4
-0.17477295
A    5
-0.083313525
A    6
-0.11846439
A    7
-0.087168634
A    8
1.1404005
A    9
-0.5250378
A   10
-0.54304874
A   11
-0.17245285
A   12
0.036927763
A   13
-0.08822772
A   14
-0.09771942
A   15
-0.13907613
A   16
-0.091365665
A   17
0.6070218
A   18
-0.3298206
A   19
-0.3381955
A   20
0.6781261
A   21
-0.21569353
A   22
-0.22993624
A   23
-0.22087087
A   24
0.14587937
A   25
0.15585254
A   26
0.14513344
A   27
0.14293914
A   28
0.16500537
A   29
0.16755463
A   30
0.15195897
M  END
>  <Name>  (31) 
ligand_64

>  <IC50 (nM)>  (31) 
12000

>  <charge>  (31) 
0

$$$$
ligand_115
     RDKit          3D

 46 50  0  0  0  0  0  0  0  0999 V2000
   72.0953   18.8028   53.7918 C   0  0  0  0  0  0  0  0  0  0  0  0
   71.5685   17.6624   54.3880 C   0  0  0  0  0  0  0  0  0  0  0  0
   70.2695   17.6706   54.9239 C   0  0  0  0  0  0  0  0  0  0  0  0
   71.3335   19.9673   53.7352 C   0  0  0  0  0  0  0  0  0  0  0  0
   70.0455   20.0154   54.2912 C   0  0  0  0  0  0  0  0  0  0  0  0
   69.4969   18.8635   54.9104 C   0  0  0  0  0  0  0  0  0  0  0  0
   68.2105   18.9764   55.4900 C   0  0  0  0  0  0  0  0  0  0  0  0
   67.4868   20.1675   55.4375 C   0  0  0  0  0  0  0  0  0  0  0  0
   68.0310   21.2800   54.8110 C   0  0  0  0  0  0  0  0  0  0  0  0
   69.3021   21.2054   54.2442 C   0  0  0  0  0  0  0  0  0  0  0  0
   69.7740   16.4193   55.4987 C   0  0  0  0  0  0  0  0  0  0  0  0
   68.7749   15.5875   54.9838 N   0  0  0  0  0  0  0  0  0  0  0  0
   68.7247   14.5459   55.8958 C   0  0  0  0  0  0  0  0  0  0  0  0
   69.5063   14.7848   56.9208 N   0  0  0  0  0  0  0  0  0  0  0  0
   70.1793   15.9444   56.6637 N   0  0  0  0  0  0  0  0  0  0  0  0
   67.9504   13.0113   55.6418 S   0  0  0  0  0  0  0  0  0  0  0  0
   69.2334   12.1737   54.6539 C   0  0  0  0  0  0  0  0  0  0  0  0
   67.9683   15.7887   53.8238 C   0  0  0  0  0  0  0  0  0  0  0  0
   68.5039   16.3627   52.6646 C   0  0  0  0  0  0  0  0  0  0  0  0
   67.6865   16.6007   51.5551 C   0  0  0  0  0  0  0  0  0  0  0  0
   66.3324   16.2740   51.5942 C   0  0  0  0  0  0  0  0  0  0  0  0
   65.7916   15.7009   52.7423 C   0  0  0  0  0  0  0  0  0  0  0  0
   66.6045   15.4554   53.8532 C   0  0  0  0  0  0  0  0  0  0  0  0
   70.5586   12.0840   55.3416 C   0  0  0  0  0  0  0  0  0  0  0  0
   70.8218   11.4959   56.5655 C   0  0  0  0  0  0  0  0  0  0  0  0
   72.4770   11.6704   56.9580 S   0  0  0  0  0  0  0  0  0  0  0  0
   72.7365   12.4876   55.4720 C   0  0  0  0  0  0  0  0  0  0  0  0
   71.6747   12.6330   54.7158 N   0  0  0  0  0  0  0  0  0  0  0  0
   73.9523   12.9264   55.1292 N   0  0  0  0  0  0  0  0  0  0  0  0
   73.0991   18.7865   53.3754 H   0  0  0  0  0  0  0  0  0  0  0  0
   72.1711   16.7560   54.4349 H   0  0  0  0  0  0  0  0  0  0  0  0
   71.7622   20.8509   53.2648 H   0  0  0  0  0  0  0  0  0  0  0  0
   67.7576   18.1346   56.0089 H   0  0  0  0  0  0  0  0  0  0  0  0
   66.5013   20.2234   55.8924 H   0  0  0  0  0  0  0  0  0  0  0  0
   67.4723   22.2103   54.7706 H   0  0  0  0  0  0  0  0  0  0  0  0
   69.7114   22.0948   53.7685 H   0  0  0  0  0  0  0  0  0  0  0  0
   68.8773   11.1630   54.4276 H   0  0  0  0  0  0  0  0  0  0  0  0
   69.3372   12.6985   53.6978 H   0  0  0  0  0  0  0  0  0  0  0  0
   69.5580   16.6094   52.5769 H   0  0  0  0  0  0  0  0  0  0  0  0
   68.1103   17.0464   50.6580 H   0  0  0  0  0  0  0  0  0  0  0  0
   65.6962   16.4730   50.7339 H   0  0  0  0  0  0  0  0  0  0  0  0
   64.7300   15.4619   52.7784 H   0  0  0  0  0  0  0  0  0  0  0  0
   66.1317   15.0550   54.7473 H   0  0  0  0  0  0  0  0  0  0  0  0
   70.1327   11.0111   57.2421 H   0  0  0  0  0  0  0  0  0  0  0  0
   74.1069   13.3395   54.2207 H   0  0  0  0  0  0  0  0  0  0  0  0
   74.7560   12.7917   55.7305 H   0  0  0  0  0  0  0  0  0  0  0  0
  1  2  2  0
  1  4  1  0
  1 30  1  0
  2  3  1  0
  2 31  1  0
  3  6  2  0
  3 11  1  0
  4  5  2  0
  4 32  1  0
  5  6  1  0
  5 10  1  0
  6  7  1  0
  7  8  2  0
  7 33  1  0
  8  9  1  0
  8 34  1  0
  9 10  2  0
  9 35  1  0
 10 36  1  0
 11 12  1  0
 11 15  2  0
 12 13  1  0
 12 18  1  0
 13 14  2  0
 13 16  1  0
 14 15  1  0
 16 17  1  0
 17 24  1  0
 17 37  1  0
 17 38  1  0
 18 19  2  0
 18 23  1  0
 19 20  1  0
 19 39  1  0
 20 21  2  0
 20 40  1  0
 21 22  1  0
 21 41  1  0
 22 23  2  0
 22 42  1  0
 23 43  1  0
 24 25  2  0
 24 28  1  0
 25 26  1  0
 25 44  1  0
 26 27  1  0
 27 28  2  0
 27 29  1  0
 29 45  1  0
 29 46  1  0
A    1
-0.09472801
A    2
-0.12060028
A    3
-0.04984742
A    4
-0.14574456
A    5
0.07561125
A    6
0.048334867
A    7
-0.14669107
A    8
-0.09700982
A    9
-0.09655631
A   10
-0.16880901
A   11
0.23195216
A   12
-0.09979282
A   13
0.20922859
A   14
-0.2795871
A   15
-0.275858
A   16
-0.037080575
A   17
-0.22832263
A   18
0.16377446
A   19
-0.19532014
A   20
-0.0949215
A   21
-0.102593675
A   22
-0.10963677
A   23
-0.17389679
A   24
0.2732524
A   25
-0.31978497
A   26
0.033076182
A   27
0.43243635
A   28
-0.5529709
A   29
-0.7424308
A   30
0.12897389
A   31
0.13311042
A   32
0.1257268
A   33
0.122686274
A   34
0.12442376
A   35
0.12420964
A   36
0.13207385
A   37
0.13550588
A   38
0.12823217
A   39
0.137618
A   40
0.12691969
A   41
0.12722626
A   42
0.12634374
A   43
0.14287615
A   44
0.16937198
A   45
0.35261312
A   46
0.3266052
M  END
>  <Name>  (32) 
ligand_115

>  <IC50 (nM)>  (32) 
58350

>  <charge>  (32) 
0

$$$$
ligand_56
     RDKit          3D

 45 47  0  0  0  0  0  0  0  0999 V2000
   73.0734   10.5402   54.4127 C   0  0  0  0  0  0  0  0  0  0  0  0
   73.8501    9.4340   54.0499 C   0  0  0  0  0  0  0  0  0  0  0  0
   73.4794    8.1617   54.4973 C   0  0  0  0  0  0  0  0  0  0  0  0
   72.3399    7.9903   55.2911 C   0  0  0  0  0  0  0  0  0  0  0  0
   71.5720    9.1074   55.6461 C   0  0  0  0  0  0  0  0  0  0  0  0
   71.9345   10.3885   55.2179 C   0  0  0  0  0  0  0  0  0  0  0  0
   75.3360    7.1670   53.4963 O   0  0  0  0  0  0  0  0  0  0  0  0
   73.9111    5.8775   54.5360 O   0  0  0  0  0  0  0  0  0  0  0  0
   71.2336   11.5582   55.5556 N   0  0  0  0  0  0  0  0  0  0  0  0
   70.1163   11.6914   56.3643 C   0  0  0  0  0  0  0  0  0  0  0  0
   69.5074   10.7671   56.8999 O   0  0  0  0  0  0  0  0  0  0  0  0
   69.6077   13.1222   56.4603 C   0  0  0  0  0  0  0  0  0  0  0  0
   70.9759   14.3083   56.6679 S   0  0  0  0  0  0  0  0  0  0  0  0
   70.0752   15.7473   56.2743 C   0  0  0  0  0  0  0  0  0  0  0  0
   69.2966   17.7141   57.0940 C   0  0  0  0  0  0  0  0  0  0  0  0
   68.7953   16.9643   54.8447 C   0  0  0  0  0  0  0  0  0  0  0  0
   69.5608   15.8595   55.0994 N   0  0  0  0  0  0  0  0  0  0  0  0
   70.0019   16.5925   57.2842 N   0  0  0  0  0  0  0  0  0  0  0  0
   69.1842   18.5994   57.9439 O   0  0  0  0  0  0  0  0  0  0  0  0
   68.5974   17.9042   55.7847 C   0  0  0  0  0  0  0  0  0  0  0  0
   67.7498   19.0282   55.6128 C   0  0  0  0  0  0  0  0  0  0  0  0
   67.0474   19.9324   55.4045 N   0  0  0  0  0  0  0  0  0  0  0  0
   68.1773   16.9615   53.4901 C   0  0  0  0  0  0  0  0  0  0  0  0
   67.6326   15.7605   52.9939 C   0  0  0  0  0  0  0  0  0  0  0  0
   68.1974   18.0774   52.6463 C   0  0  0  0  0  0  0  0  0  0  0  0
   67.6452   18.0063   51.3657 C   0  0  0  0  0  0  0  0  0  0  0  0
   67.0773   16.8174   50.9027 C   0  0  0  0  0  0  0  0  0  0  0  0
   67.0691   15.6866   51.7169 C   0  0  0  0  0  0  0  0  0  0  0  0
   66.5816   14.4539   51.3703 O   0  0  0  0  0  0  0  0  0  0  0  0
   65.7160   14.4217   50.2411 C   0  0  0  0  0  0  0  0  0  0  0  0
   74.2917    6.9968   54.1490 N   0  0  0  0  0  0  0  0  0  0  0  0
   73.3683   11.5313   54.0692 H   0  0  0  0  0  0  0  0  0  0  0  0
   74.7364    9.5859   53.4381 H   0  0  0  0  0  0  0  0  0  0  0  0
   72.0441    7.0046   55.6509 H   0  0  0  0  0  0  0  0  0  0  0  0
   70.6992    8.9433   56.2720 H   0  0  0  0  0  0  0  0  0  0  0  0
   71.6073   12.4440   55.2202 H   0  0  0  0  0  0  0  0  0  0  0  0
   68.9343   13.2052   57.3188 H   0  0  0  0  0  0  0  0  0  0  0  0
   69.0442   13.3255   55.5442 H   0  0  0  0  0  0  0  0  0  0  0  0
   67.6590   14.8629   53.6120 H   0  0  0  0  0  0  0  0  0  0  0  0
   68.6623   19.0073   52.9651 H   0  0  0  0  0  0  0  0  0  0  0  0
   67.6745   18.8801   50.7230 H   0  0  0  0  0  0  0  0  0  0  0  0
   66.6753   16.7995   49.8964 H   0  0  0  0  0  0  0  0  0  0  0  0
   65.2842   13.4180   50.1806 H   0  0  0  0  0  0  0  0  0  0  0  0
   66.2750   14.5986   49.3165 H   0  0  0  0  0  0  0  0  0  0  0  0
   64.8903   15.1336   50.3472 H   0  0  0  0  0  0  0  0  0  0  0  0
  1  2  2  0
  1  6  1  0
  1 32  1  0
  2  3  1  0
  2 33  1  0
  3  4  2  0
  3 31  1  0
  4  5  1  0
  4 34  1  0
  5  6  2  0
  5 35  1  0
  6  9  1  0
  7 31  2  0
  8 31  1  0
  9 10  1  0
  9 36  1  0
 10 11  2  0
 10 12  1  0
 12 13  1  0
 12 37  1  0
 12 38  1  0
 13 14  1  0
 14 17  2  0
 14 18  1  0
 15 18  1  0
 15 19  2  0
 15 20  1  0
 16 17  1  0
 16 20  2  0
 16 23  1  0
 20 21  1  0
 21 22  3  0
 23 24  2  0
 23 25  1  0
 24 28  1  0
 24 39  1  0
 25 26  2  0
 25 40  1  0
 26 27  1  0
 26 41  1  0
 27 28  2  0
 27 42  1  0
 28 29  1  0
 29 30  1  0
 30 43  1  0
 30 44  1  0
 30 45  1  0
M  CHG  3   8  -1  18  -1  31   1
A    1
-0.24881287
A    2
-0.10408444
A    3
0.012498018
A    4
-0.104748465
A    5
-0.23365384
A    6
0.31629038
A    7
-0.367646
A    8
-0.41829547
A    9
-0.56820697
A   10
0.5720696
A   11
-0.5548522
A   12
-0.3274806
A   13
-0.0573387
A   14
0.38691282
A   15
0.59170574
A   16
0.2537609
A   17
-0.47399253
A   18
-0.5521281
A   19
-0.5164378
A   20
-0.21280846
A   21
0.27530012
A   22
-0.4640451
A   23
0.048002277
A   24
-0.32904828
A   25
-0.14078362
A   26
-0.07085073
A   27
-0.26465324
A   28
0.30447188
A   29
-0.2154599
A   30
-0.16720177
A   31
0.5635114
A   32
0.15243459
A   33
0.13878433
A   34
0.14675206
A   35
0.14135152
A   36
0.29838127
A   37
0.16254334
A   38
0.15622902
A   39
0.15148139
A   40
0.13093951
A   41
0.13173132
A   42
0.15221345
A   43
0.10372812
A   44
0.09934924
A   45
0.10208708
M  END
>  <Name>  (33) 
ligand_56

>  <IC50 (nM)>  (33) 
300000

>  <charge>  (33) 
0

$$$$
ligand_105
     RDKit          3D

 47 51  0  0  0  0  0  0  0  0999 V2000
   69.1859   20.7791   53.5396 C   0  0  0  0  0  0  0  0  0  0  0  0
   68.7792   19.8607   52.5678 C   0  0  0  0  0  0  0  0  0  0  0  0
   68.7137   18.5124   52.9049 C   0  0  0  0  0  0  0  0  0  0  0  0
   69.4992   20.3655   54.8405 C   0  0  0  0  0  0  0  0  0  0  0  0
   69.4231   19.0159   55.1914 C   0  0  0  0  0  0  0  0  0  0  0  0
   69.0553   18.0973   54.2057 C   0  0  0  0  0  0  0  0  0  0  0  0
   69.0331   16.7419   54.4285 O   0  0  0  0  0  0  0  0  0  0  0  0
   69.5427   16.2636   55.6204 C   0  0  0  0  0  0  0  0  0  0  0  0
   69.8574   17.0244   56.6870 C   0  0  0  0  0  0  0  0  0  0  0  0
   69.7169   18.5051   56.5589 C   0  0  0  0  0  0  0  0  0  0  0  0
   69.7543   14.8085   55.5995 C   0  0  0  0  0  0  0  0  0  0  0  0
   68.6646   13.9160   55.4946 C   0  0  0  0  0  0  0  0  0  0  0  0
   68.8738   12.5313   55.4680 C   0  0  0  0  0  0  0  0  0  0  0  0
   71.0645   14.3099   55.6623 C   0  0  0  0  0  0  0  0  0  0  0  0
   70.3114   16.5266   57.8991 O   0  0  0  0  0  0  0  0  0  0  0  0
   69.8339   19.2350   57.5352 O   0  0  0  0  0  0  0  0  0  0  0  0
   69.9177   21.3081   55.7362 O   0  0  0  0  0  0  0  0  0  0  0  0
   68.5367   20.4133   51.3425 O   0  0  0  0  0  0  0  0  0  0  0  0
   67.8256   19.6505   50.3663 C   0  0  0  0  0  0  0  0  0  0  0  0
   67.8334   20.4230   49.0603 C   0  0  0  0  0  0  0  0  0  0  0  0
   69.0535   20.6524   48.4025 C   0  0  0  0  0  0  0  0  0  0  0  0
   69.0979   21.3492   47.1929 C   0  0  0  0  0  0  0  0  0  0  0  0
   67.9203   21.8259   46.6206 C   0  0  0  0  0  0  0  0  0  0  0  0
   66.6920   21.6124   47.2553 C   0  0  0  0  0  0  0  0  0  0  0  0
   66.6510   20.9132   48.4747 C   0  0  0  0  0  0  0  0  0  0  0  0
   65.4901   22.1128   46.6417 C   0  0  0  0  0  0  0  0  0  0  0  0
   64.5286   22.5210   46.1341 N   0  0  0  0  0  0  0  0  0  0  0  0
   71.2363   12.9457   55.6382 C   0  0  0  0  0  0  0  0  0  0  0  0
   70.1736   12.0798   55.5439 C   0  0  0  0  0  0  0  0  0  0  0  0
   70.5686   10.7796   55.5350 O   0  0  0  0  0  0  0  0  0  0  0  0
   71.9982   10.9272   55.6828 C   0  0  0  0  0  0  0  0  0  0  0  0
   72.4308   12.3041   55.7052 O   0  0  0  0  0  0  0  0  0  0  0  0
   69.2638   21.8276   53.2608 H   0  0  0  0  0  0  0  0  0  0  0  0
   68.4373   17.7547   52.1793 H   0  0  0  0  0  0  0  0  0  0  0  0
   67.6483   14.3012   55.4319 H   0  0  0  0  0  0  0  0  0  0  0  0
   68.0465   11.8333   55.3879 H   0  0  0  0  0  0  0  0  0  0  0  0
   71.9267   14.9672   55.7250 H   0  0  0  0  0  0  0  0  0  0  0  0
   70.2598   15.5581   57.8830 H   0  0  0  0  0  0  0  0  0  0  0  0
   69.7416   22.1912   55.3672 H   0  0  0  0  0  0  0  0  0  0  0  0
   66.7987   19.4802   50.7099 H   0  0  0  0  0  0  0  0  0  0  0  0
   68.3098   18.6839   50.1844 H   0  0  0  0  0  0  0  0  0  0  0  0
   69.9837   20.2904   48.8395 H   0  0  0  0  0  0  0  0  0  0  0  0
   70.0533   21.5245   46.7042 H   0  0  0  0  0  0  0  0  0  0  0  0
   67.9682   22.3697   45.6788 H   0  0  0  0  0  0  0  0  0  0  0  0
   65.6947   20.7536   48.9707 H   0  0  0  0  0  0  0  0  0  0  0  0
   72.4899   10.4196   54.8452 H   0  0  0  0  0  0  0  0  0  0  0  0
   72.3070   10.4453   56.6179 H   0  0  0  0  0  0  0  0  0  0  0  0
  1  2  2  0
  1  4  1  0
  1 33  1  0
  2  3  1  0
  2 18  1  0
  3  6  2  0
  3 34  1  0
  4  5  2  0
  4 17  1  0
  5  6  1  0
  5 10  1  0
  6  7  1  0
  7  8  1  0
  8  9  2  0
  8 11  1  0
  9 10  1  0
  9 15  1  0
 10 16  2  0
 11 12  2  0
 11 14  1  0
 12 13  1  0
 12 35  1  0
 13 29  2  0
 13 36  1  0
 14 28  2  0
 14 37  1  0
 15 38  1  0
 17 39  1  0
 18 19  1  0
 19 20  1  0
 19 40  1  0
 19 41  1  0
 20 21  2  0
 20 25  1  0
 21 22  1  0
 21 42  1  0
 22 23  2  0
 22 43  1  0
 23 24  1  0
 23 44  1  0
 24 25  2  0
 24 26  1  0
 25 45  1  0
 26 27  3  0
 28 29  1  0
 28 32  1  0
 29 30  1  0
 30 31  1  0
 31 32  1  0
 31 46  1  0
 31 47  1  0
A    1
-0.43851367
A    2
0.32945788
A    3
-0.38829592
A    4
0.41780913
A    5
-0.25452062
A    6
0.28630492
A    7
-0.212773
A    8
0.14191934
A    9
0.12966347
A   10
0.3298265
A   11
0.051519983
A   12
-0.110799
A   13
-0.21007161
A   14
-0.24601355
A   15
-0.4688366
A   16
-0.45576674
A   17
-0.49659094
A   18
-0.23859587
A   19
-0.01888339
A   20
0.059963766
A   21
-0.14180243
A   22
-0.09520932
A   23
-0.1191758
A   24
0.048190083
A   25
-0.18266407
A   26
0.26258636
A   27
-0.45568544
A   28
0.16124861
A   29
0.15354085
A   30
-0.2630035
A   31
0.118359275
A   32
-0.2517912
A   33
0.17027505
A   34
0.16056524
A   35
0.14447755
A   36
0.16856988
A   37
0.15469073
A   38
0.41481984
A   39
0.45194083
A   40
0.08852995
A   41
0.08695294
A   42
0.13116364
A   43
0.13654765
A   44
0.13914348
A   45
0.1437456
A   46
0.08633901
A   47
0.080841236
M  END
>  <Name>  (34) 
ligand_105

>  <IC50 (nM)>  (34) 
42900

>  <charge>  (34) 
0

$$$$
ligand_76
     RDKit          3D

 37 39  0  0  0  0  0  0  0  0999 V2000
   71.1351   13.1149   55.8066 C   0  0  0  0  0  0  0  0  0  0  0  0
   71.6503   12.0572   56.5334 C   0  0  0  0  0  0  0  0  0  0  0  0
   72.0966   10.9905   55.7036 C   0  0  0  0  0  0  0  0  0  0  0  0
   71.9130   11.2638   54.3677 C   0  0  0  0  0  0  0  0  0  0  0  0
   71.2015   12.7956   54.1219 S   0  0  0  0  0  0  0  0  0  0  0  0
   70.1317   15.2598   55.4004 N   0  0  0  0  0  0  0  0  0  0  0  0
   69.6010   16.4924   55.7297 C   0  0  0  0  0  0  0  0  0  0  0  0
   68.7398   18.5284   55.8129 C   0  0  0  0  0  0  0  0  0  0  0  0
   69.1379   17.5136   54.9246 C   0  0  0  0  0  0  0  0  0  0  0  0
   69.4457   16.9417   57.0142 N   0  0  0  0  0  0  0  0  0  0  0  0
   68.8979   18.1665   57.0907 N   0  0  0  0  0  0  0  0  0  0  0  0
   70.5632   14.5940   57.5543 O   0  0  0  0  0  0  0  0  0  0  0  0
   70.5984   14.3582   56.3446 C   0  0  0  0  0  0  0  0  0  0  0  0
   68.0878   20.0948   55.4013 S   0  0  0  0  0  0  0  0  0  0  0  0
   68.1187   20.9399   56.9969 C   0  0  0  0  0  0  0  0  0  0  0  0
   67.5111   18.0312   52.6720 C   0  0  0  0  0  0  0  0  0  0  0  0
   65.1262   17.6549   52.5897 C   0  0  0  0  0  0  0  0  0  0  0  0
   66.3937   17.2733   53.0406 C   0  0  0  0  0  0  0  0  0  0  0  0
   67.3717   19.1533   51.8480 C   0  0  0  0  0  0  0  0  0  0  0  0
   66.1025   19.5273   51.4013 C   0  0  0  0  0  0  0  0  0  0  0  0
   64.9854   18.7789   51.7727 C   0  0  0  0  0  0  0  0  0  0  0  0
   70.0836   18.5697   52.8678 O   0  0  0  0  0  0  0  0  0  0  0  0
   69.1220   17.5446   53.2177 S   0  0  0  0  0  0  0  0  0  0  0  0
   69.3159   16.1591   52.8251 O   0  0  0  0  0  0  0  0  0  0  0  0
   63.4244   19.2434   51.2096 Cl  0  0  0  0  0  0  0  0  0  0  0  0
   71.7057   12.0545   57.6169 H   0  0  0  0  0  0  0  0  0  0  0  0
   72.5342   10.0704   56.0692 H   0  0  0  0  0  0  0  0  0  0  0  0
   72.1654   10.6354   53.5238 H   0  0  0  0  0  0  0  0  0  0  0  0
   70.1901   15.0095   54.4118 H   0  0  0  0  0  0  0  0  0  0  0  0
   69.6966   16.4444   57.8671 H   0  0  0  0  0  0  0  0  0  0  0  0
   67.7672   21.9666   56.8621 H   0  0  0  0  0  0  0  0  0  0  0  0
   69.1352   20.9773   57.3987 H   0  0  0  0  0  0  0  0  0  0  0  0
   67.4570   20.4454   57.7136 H   0  0  0  0  0  0  0  0  0  0  0  0
   64.2516   17.0734   52.8718 H   0  0  0  0  0  0  0  0  0  0  0  0
   66.4972   16.3877   53.6636 H   0  0  0  0  0  0  0  0  0  0  0  0
   68.2368   19.7440   51.5512 H   0  0  0  0  0  0  0  0  0  0  0  0
   65.9937   20.4005   50.7640 H   0  0  0  0  0  0  0  0  0  0  0  0
  1  2  2  0
  1  5  1  0
  1 13  1  0
  2  3  1  0
  2 26  1  0
  3  4  2  0
  3 27  1  0
  4  5  1  0
  4 28  1  0
  6  7  1  0
  6 13  1  0
  6 29  1  0
  7  9  2  0
  7 10  1  0
  8  9  1  0
  8 11  2  0
  8 14  1  0
  9 23  1  0
 10 11  1  0
 10 30  1  0
 12 13  2  0
 14 15  1  0
 15 31  1  0
 15 32  1  0
 15 33  1  0
 16 18  1  0
 16 19  2  0
 16 23  1  0
 17 18  2  0
 17 21  1  0
 17 34  1  0
 18 35  1  0
 19 20  1  0
 19 36  1  0
 20 21  2  0
 20 37  1  0
 21 25  1  0
 22 23  2  0
 23 24  2  0
A    1
-0.1564033
A    2
-0.11419374
A    3
-0.11566826
A    4
-0.18176474
A    5
0.115058996
A    6
-0.51152116
A    7
0.39048612
A    8
0.14564309
A    9
-0.36197668
A   10
-0.18303373
A   11
-0.2733104
A   12
-0.54248446
A   13
0.5877365
A   14
0.03807188
A   15
-0.41378415
A   16
-0.11773419
A   17
-0.17089497
A   18
-0.086905636
A   19
-0.09587237
A   20
-0.16501941
A   21
0.17046174
A   22
-0.5294787
A   23
1.0465788
A   24
-0.53484607
A   25
-0.08770558
A   26
0.16172042
A   27
0.14554831
A   28
0.16910353
A   29
0.31468478
A   30
0.33321694
A   31
0.1512121
A   32
0.14239752
A   33
0.14517947
A   34
0.1457302
A   35
0.14982139
A   36
0.14401288
A   37
0.14593291
M  END
>  <Name>  (35) 
ligand_76

>  <IC50 (nM)>  (35) 
15000

>  <charge>  (35) 
0

$$$$
ligand_102
     RDKit          3D

 46 50  0  0  0  0  0  0  0  0999 V2000
   67.7031   18.0279   53.7652 C   0  0  0  0  0  0  0  0  0  0  0  0
   68.8896   18.6263   54.1846 C   0  0  0  0  0  0  0  0  0  0  0  0
   69.8337   17.8857   54.8890 C   0  0  0  0  0  0  0  0  0  0  0  0
   67.4440   16.6911   54.1062 C   0  0  0  0  0  0  0  0  0  0  0  0
   68.3714   15.9417   54.8425 C   0  0  0  0  0  0  0  0  0  0  0  0
   69.5609   16.5562   55.2276 C   0  0  0  0  0  0  0  0  0  0  0  0
   70.5254   15.9253   55.9635 O   0  0  0  0  0  0  0  0  0  0  0  0
   70.2430   14.6950   56.5420 C   0  0  0  0  0  0  0  0  0  0  0  0
   69.1522   13.9722   56.2320 C   0  0  0  0  0  0  0  0  0  0  0  0
   68.1640   14.5295   55.2616 C   0  0  0  0  0  0  0  0  0  0  0  0
   71.2619   14.3223   57.5539 C   0  0  0  0  0  0  0  0  0  0  0  0
   71.7265   13.0010   57.7563 C   0  0  0  0  0  0  0  0  0  0  0  0
   72.7283   12.7158   58.7005 C   0  0  0  0  0  0  0  0  0  0  0  0
   71.8271   15.3602   58.3190 C   0  0  0  0  0  0  0  0  0  0  0  0
   68.8513   12.7375   56.7806 O   0  0  0  0  0  0  0  0  0  0  0  0
   67.2390   13.8022   54.9101 O   0  0  0  0  0  0  0  0  0  0  0  0
   66.2556   16.1360   53.7370 O   0  0  0  0  0  0  0  0  0  0  0  0
   69.1452   19.9289   53.8440 O   0  0  0  0  0  0  0  0  0  0  0  0
   69.0223   20.8037   54.9799 C   0  0  0  0  0  0  0  0  0  0  0  0
   69.9682   21.9867   54.8935 C   0  0  0  0  0  0  0  0  0  0  0  0
   69.6232   23.1987   55.5197 C   0  0  0  0  0  0  0  0  0  0  0  0
   70.5143   24.2779   55.5427 C   0  0  0  0  0  0  0  0  0  0  0  0
   71.7631   24.1613   54.9372 C   0  0  0  0  0  0  0  0  0  0  0  0
   72.1153   22.9661   54.3110 C   0  0  0  0  0  0  0  0  0  0  0  0
   71.2323   21.8821   54.2908 C   0  0  0  0  0  0  0  0  0  0  0  0
   73.6620   22.8461   53.5587 Cl  0  0  0  0  0  0  0  0  0  0  0  0
   72.8149   15.0548   59.2258 C   0  0  0  0  0  0  0  0  0  0  0  0
   73.2555   13.7692   59.4159 C   0  0  0  0  0  0  0  0  0  0  0  0
   74.2367   13.6956   60.3556 O   0  0  0  0  0  0  0  0  0  0  0  0
   74.3760   15.0923   60.7047 C   0  0  0  0  0  0  0  0  0  0  0  0
   73.4596   15.9592   60.0071 O   0  0  0  0  0  0  0  0  0  0  0  0
   66.9872   18.6107   53.1906 H   0  0  0  0  0  0  0  0  0  0  0  0
   70.7766   18.3381   55.1856 H   0  0  0  0  0  0  0  0  0  0  0  0
   71.3169   12.1820   57.1685 H   0  0  0  0  0  0  0  0  0  0  0  0
   73.0872   11.7031   58.8571 H   0  0  0  0  0  0  0  0  0  0  0  0
   71.5111   16.3926   58.2091 H   0  0  0  0  0  0  0  0  0  0  0  0
   68.0144   12.4669   56.3422 H   0  0  0  0  0  0  0  0  0  0  0  0
   65.7648   16.7244   53.1403 H   0  0  0  0  0  0  0  0  0  0  0  0
   69.2191   20.2909   55.9308 H   0  0  0  0  0  0  0  0  0  0  0  0
   67.9869   21.1658   54.9931 H   0  0  0  0  0  0  0  0  0  0  0  0
   68.6504   23.3170   55.9958 H   0  0  0  0  0  0  0  0  0  0  0  0
   70.2317   25.2101   56.0273 H   0  0  0  0  0  0  0  0  0  0  0  0
   72.4474   25.0082   54.9451 H   0  0  0  0  0  0  0  0  0  0  0  0
   71.5331   20.9553   53.8078 H   0  0  0  0  0  0  0  0  0  0  0  0
   74.2073   15.1993   61.7824 H   0  0  0  0  0  0  0  0  0  0  0  0
   75.4009   15.4083   60.4775 H   0  0  0  0  0  0  0  0  0  0  0  0
  1  2  2  0
  1  4  1  0
  1 32  1  0
  2  3  1  0
  2 18  1  0
  3  6  2  0
  3 33  1  0
  4  5  2  0
  4 17  1  0
  5  6  1  0
  5 10  1  0
  6  7  1  0
  7  8  1  0
  8  9  2  0
  8 11  1  0
  9 10  1  0
  9 15  1  0
 10 16  2  0
 11 12  2  0
 11 14  1  0
 12 13  1  0
 12 34  1  0
 13 28  2  0
 13 35  1  0
 14 27  2  0
 14 36  1  0
 15 37  1  0
 17 38  1  0
 18 19  1  0
 19 20  1  0
 19 39  1  0
 19 40  1  0
 20 21  2  0
 20 25  1  0
 21 22  1  0
 21 41  1  0
 22 23  2  0
 22 42  1  0
 23 24  1  0
 23 43  1  0
 24 25  2  0
 24 26  1  0
 25 44  1  0
 27 28  1  0
 27 31  1  0
 28 29  1  0
 29 30  1  0
 30 31  1  0
 30 45  1  0
 30 46  1  0
A    1
-0.40303177
A    2
0.35954863
A    3
-0.39674422
A    4
0.4188681
A    5
-0.25000343
A    6
0.2892713
A    7
-0.20178044
A    8
0.11705696
A    9
0.12354325
A   10
0.3541849
A   11
0.051066574
A   12
-0.1101973
A   13
-0.19342528
A   14
-0.25656635
A   15
-0.46560714
A   16
-0.49136522
A   17
-0.50261194
A   18
-0.25928852
A   19
-0.015987847
A   20
0.07931435
A   21
-0.14113511
A   22
-0.08958277
A   23
-0.1797008
A   24
0.16369501
A   25
-0.24299775
A   26
-0.09160221
A   27
0.1656457
A   28
0.14181116
A   29
-0.286291
A   30
0.13960077
A   31
-0.29240933
A   32
0.17189784
A   33
0.15917554
A   34
0.14194643
A   35
0.14908084
A   36
0.1504574
A   37
0.3939751
A   38
0.4009641
A   39
0.08774555
A   40
0.08299965
A   41
0.1357225
A   42
0.14434068
A   43
0.1421216
A   44
0.13640739
A   45
0.08590616
A   46
0.08398104
M  END
>  <Name>  (36) 
ligand_102

>  <IC50 (nM)>  (36) 
15400

>  <charge>  (36) 
0

$$$$
ligand_42
     RDKit          3D

 48 50  0  0  0  0  0  0  0  0999 V2000
   69.0358   19.9715   52.3765 C   0  0  0  0  0  0  0  0  0  0  0  0
   69.0496   18.9257   51.4418 C   0  0  0  0  0  0  0  0  0  0  0  0
   69.2218   19.1694   50.0718 C   0  0  0  0  0  0  0  0  0  0  0  0
   69.3972   20.4784   49.6340 C   0  0  0  0  0  0  0  0  0  0  0  0
   69.4510   21.5258   50.5576 C   0  0  0  0  0  0  0  0  0  0  0  0
   69.2612   21.2712   51.9212 C   0  0  0  0  0  0  0  0  0  0  0  0
   67.8802   21.4342   47.6380 N   0  0  0  0  0  0  0  0  0  0  0  0
   69.4653   20.8576   47.9082 S   0  0  0  0  0  0  0  0  0  0  0  0
   70.2949   22.0251   47.6857 O   0  0  0  0  0  0  0  0  0  0  0  0
   69.5933   19.6680   47.0978 O   0  0  0  0  0  0  0  0  0  0  0  0
   68.7481   19.6465   53.7181 N   0  0  0  0  0  0  0  0  0  0  0  0
   68.5638   20.5079   54.7869 C   0  0  0  0  0  0  0  0  0  0  0  0
   68.7394   21.7268   54.7616 O   0  0  0  0  0  0  0  0  0  0  0  0
   67.9951   19.8320   56.0298 C   0  0  0  0  0  0  0  0  0  0  0  0
   69.2631   19.0012   57.0102 S   0  0  0  0  0  0  0  0  0  0  0  0
   69.3238   17.4272   56.2535 C   0  0  0  0  0  0  0  0  0  0  0  0
   70.5235   15.5433   56.2539 C   0  0  0  0  0  0  0  0  0  0  0  0
   68.8648   15.9759   54.5699 C   0  0  0  0  0  0  0  0  0  0  0  0
   69.7512   15.0949   55.0610 C   0  0  0  0  0  0  0  0  0  0  0  0
   68.7305   17.2316   55.1179 N   0  0  0  0  0  0  0  0  0  0  0  0
   70.0343   16.5613   56.9672 N   0  0  0  0  0  0  0  0  0  0  0  0
   71.5260   14.9063   56.5738 O   0  0  0  0  0  0  0  0  0  0  0  0
   69.9683   13.7906   54.5460 C   0  0  0  0  0  0  0  0  0  0  0  0
   70.1059   12.7075   54.1395 N   0  0  0  0  0  0  0  0  0  0  0  0
   67.9786   15.6828   53.4129 C   0  0  0  0  0  0  0  0  0  0  0  0
   66.6068   15.9656   53.5146 C   0  0  0  0  0  0  0  0  0  0  0  0
   68.4674   15.1894   52.1950 C   0  0  0  0  0  0  0  0  0  0  0  0
   67.6030   14.9610   51.1227 C   0  0  0  0  0  0  0  0  0  0  0  0
   66.2398   15.2361   51.2463 C   0  0  0  0  0  0  0  0  0  0  0  0
   65.7352   15.7438   52.4432 C   0  0  0  0  0  0  0  0  0  0  0  0
   64.4284   16.0655   52.6909 O   0  0  0  0  0  0  0  0  0  0  0  0
   63.4990   15.8294   51.6424 C   0  0  0  0  0  0  0  0  0  0  0  0
   68.8926   17.9045   51.7732 H   0  0  0  0  0  0  0  0  0  0  0  0
   69.1910   18.3401   49.3688 H   0  0  0  0  0  0  0  0  0  0  0  0
   69.6199   22.5480   50.2327 H   0  0  0  0  0  0  0  0  0  0  0  0
   69.2911   22.1131   52.6064 H   0  0  0  0  0  0  0  0  0  0  0  0
   67.9143   22.4428   47.4654 H   0  0  0  0  0  0  0  0  0  0  0  0
   67.3004   21.1738   48.4424 H   0  0  0  0  0  0  0  0  0  0  0  0
   68.6628   18.6527   53.9577 H   0  0  0  0  0  0  0  0  0  0  0  0
   67.1744   19.1596   55.7591 H   0  0  0  0  0  0  0  0  0  0  0  0
   67.5556   20.6168   56.6557 H   0  0  0  0  0  0  0  0  0  0  0  0
   66.2103   16.3656   54.4468 H   0  0  0  0  0  0  0  0  0  0  0  0
   69.5289   14.9913   52.0600 H   0  0  0  0  0  0  0  0  0  0  0  0
   67.9970   14.5701   50.1879 H   0  0  0  0  0  0  0  0  0  0  0  0
   65.6024   15.0457   50.3901 H   0  0  0  0  0  0  0  0  0  0  0  0
   62.5081   16.1238   52.0013 H   0  0  0  0  0  0  0  0  0  0  0  0
   63.4563   14.7663   51.3832 H   0  0  0  0  0  0  0  0  0  0  0  0
   63.7298   16.4422   50.7647 H   0  0  0  0  0  0  0  0  0  0  0  0
  1  2  2  0
  1  6  1  0
  1 11  1  0
  2  3  1  0
  2 33  1  0
  3  4  2  0
  3 34  1  0
  4  5  1  0
  4  8  1  0
  5  6  2  0
  5 35  1  0
  6 36  1  0
  7  8  1  0
  7 37  1  0
  7 38  1  0
  8  9  2  0
  8 10  2  0
 11 12  1  0
 11 39  1  0
 12 13  2  0
 12 14  1  0
 14 15  1  0
 14 40  1  0
 14 41  1  0
 15 16  1  0
 16 20  2  0
 16 21  1  0
 17 19  1  0
 17 21  1  0
 17 22  2  0
 18 19  2  0
 18 20  1  0
 18 25  1  0
 19 23  1  0
 23 24  3  0
 25 26  2  0
 25 27  1  0
 26 30  1  0
 26 42  1  0
 27 28  2  0
 27 43  1  0
 28 29  1  0
 28 44  1  0
 29 30  2  0
 29 45  1  0
 30 31  1  0
 31 32  1  0
 32 46  1  0
 32 47  1  0
 32 48  1  0
M  CHG  1  21  -1
A    1
0.2758132
A    2
-0.22823168
A    3
-0.08092006
A    4
-0.16862364
A    5
-0.08568279
A    6
-0.24174848
A    7
-0.93627495
A    8
1.2197776
A    9
-0.59402835
A   10
-0.5601067
A   11
-0.53576374
A   12
0.59886426
A   13
-0.48800954
A   14
-0.32813302
A   15
-0.046919517
A   16
0.40050095
A   17
0.5703758
A   18
0.2505221
A   19
-0.23454314
A   20
-0.49377027
A   21
-0.56006813
A   22
-0.5070664
A   23
0.2997647
A   24
-0.4908114
A   25
0.051256165
A   26
-0.28020528
A   27
-0.13660893
A   28
-0.080545396
A   29
-0.24000378
A   30
0.26699007
A   31
-0.19869657
A   32
-0.18842925
A   33
0.14833567
A   34
0.1373815
A   35
0.14389327
A   36
0.14347117
A   37
0.36601287
A   38
0.35025486
A   39
0.32459322
A   40
0.13959354
A   41
0.1674499
A   42
0.14309835
A   43
0.122483045
A   44
0.13417108
A   45
0.13600989
A   46
0.11096274
A   47
0.099947445
A   48
0.10366778
M  END
>  <Name>  (37) 
ligand_42

>  <IC50 (nM)>  (37) 
40000

>  <charge>  (37) 
-1

$$$$
ligand_41
     RDKit          3D

 38 39  0  0  0  0  0  0  0  0999 V2000
   67.8734   20.6278   49.7181 C   0  0  0  0  0  0  0  0  0  0  0  0
   67.6110   20.0891   48.4566 C   0  0  0  0  0  0  0  0  0  0  0  0
   66.6785   20.6911   47.6041 C   0  0  0  0  0  0  0  0  0  0  0  0
   66.0065   21.8409   48.0044 C   0  0  0  0  0  0  0  0  0  0  0  0
   66.2508   22.3868   49.2608 C   0  0  0  0  0  0  0  0  0  0  0  0
   67.1792   21.7787   50.1144 C   0  0  0  0  0  0  0  0  0  0  0  0
   68.8065   20.0861   50.6260 N   0  0  0  0  0  0  0  0  0  0  0  0
   69.5747   18.9454   50.4614 C   0  0  0  0  0  0  0  0  0  0  0  0
   69.5510   18.1885   49.4937 O   0  0  0  0  0  0  0  0  0  0  0  0
   70.5199   18.6757   51.6204 C   0  0  0  0  0  0  0  0  0  0  0  0
   69.6330   17.8873   52.9916 S   0  0  0  0  0  0  0  0  0  0  0  0
   69.1187   19.2688   53.9019 C   0  0  0  0  0  0  0  0  0  0  0  0
   68.3004   21.2416   55.5517 C   0  0  0  0  0  0  0  0  0  0  0  0
   68.1665   19.8465   55.9967 C   0  0  0  0  0  0  0  0  0  0  0  0
   68.8320   21.4797   54.3424 C   0  0  0  0  0  0  0  0  0  0  0  0
   69.2272   20.4835   53.4733 N   0  0  0  0  0  0  0  0  0  0  0  0
   68.6027   18.9181   55.1060 N   0  0  0  0  0  0  0  0  0  0  0  0
   64.8783   22.5883   46.9405 Cl  0  0  0  0  0  0  0  0  0  0  0  0
   67.7079   19.5634   57.0955 O   0  0  0  0  0  0  0  0  0  0  0  0
   69.0187   22.8992   53.8538 C   0  0  0  0  0  0  0  0  0  0  0  0
   70.4217   23.4633   54.1035 C   0  0  0  0  0  0  0  0  0  0  0  0
   71.5158   22.7687   53.3055 C   0  0  0  0  0  0  0  0  0  0  0  0
   68.1150   19.1977   48.0966 H   0  0  0  0  0  0  0  0  0  0  0  0
   66.4890   20.2501   46.6306 H   0  0  0  0  0  0  0  0  0  0  0  0
   65.7260   23.2819   49.5831 H   0  0  0  0  0  0  0  0  0  0  0  0
   67.3491   22.2192   51.0922 H   0  0  0  0  0  0  0  0  0  0  0  0
   68.9073   20.5664   51.5205 H   0  0  0  0  0  0  0  0  0  0  0  0
   71.2892   17.9787   51.2707 H   0  0  0  0  0  0  0  0  0  0  0  0
   71.0383   19.5906   51.9226 H   0  0  0  0  0  0  0  0  0  0  0  0
   67.9834   22.0152   56.2380 H   0  0  0  0  0  0  0  0  0  0  0  0
   68.5392   17.9447   55.3593 H   0  0  0  0  0  0  0  0  0  0  0  0
   68.7850   22.9542   52.7844 H   0  0  0  0  0  0  0  0  0  0  0  0
   68.2915   23.5560   54.3492 H   0  0  0  0  0  0  0  0  0  0  0  0
   70.4179   24.5257   53.8307 H   0  0  0  0  0  0  0  0  0  0  0  0
   70.6645   23.4134   55.1717 H   0  0  0  0  0  0  0  0  0  0  0  0
   72.4655   23.2982   53.4329 H   0  0  0  0  0  0  0  0  0  0  0  0
   71.2766   22.7546   52.2374 H   0  0  0  0  0  0  0  0  0  0  0  0
   71.6665   21.7390   53.6423 H   0  0  0  0  0  0  0  0  0  0  0  0
  1  2  2  0
  1  6  1  0
  1  7  1  0
  2  3  1  0
  2 23  1  0
  3  4  2  0
  3 24  1  0
  4  5  1  0
  4 18  1  0
  5  6  2  0
  5 25  1  0
  6 26  1  0
  7  8  1  0
  7 27  1  0
  8  9  2  0
  8 10  1  0
 10 11  1  0
 10 28  1  0
 10 29  1  0
 11 12  1  0
 12 16  2  0
 12 17  1  0
 13 14  1  0
 13 15  2  0
 13 30  1  0
 14 17  1  0
 14 19  2  0
 15 16  1  0
 15 20  1  0
 17 31  1  0
 20 21  1  0
 20 32  1  0
 20 33  1  0
 21 22  1  0
 21 34  1  0
 21 35  1  0
 22 36  1  0
 22 37  1  0
 22 38  1  0
A    1
0.2879109
A    2
-0.21133804
A    3
-0.15282238
A    4
0.14733997
A    5
-0.152708
A    6
-0.20781684
A    7
-0.5390242
A    8
0.6087606
A    9
-0.49288774
A   10
-0.31364322
A   11
-0.027539104
A   12
0.37789673
A   13
-0.44114283
A   14
0.63477
A   15
0.32208073
A   16
-0.49603376
A   17
-0.44580305
A   18
-0.09308229
A   19
-0.5681682
A   20
-0.23493995
A   21
-0.05014765
A   22
-0.33614603
A   23
0.14097707
A   24
0.14988461
A   25
0.14077526
A   26
0.15095922
A   27
0.3214764
A   28
0.16531022
A   29
0.15113544
A   30
0.16848491
A   31
0.34981123
A   32
0.10889707
A   33
0.10170745
A   34
0.07440739
A   35
0.07423477
A   36
0.09653344
A   37
0.09018725
A   38
0.099702574
M  END
>  <Name>  (38) 
ligand_41

>  <IC50 (nM)>  (38) 
30000

>  <charge>  (38) 
0

$$$$
ligand_55
     RDKit          3D

 44 46  0  0  0  0  0  0  0  0999 V2000
   69.1629   18.3631   55.4664 C   0  0  0  0  0  0  0  0  0  0  0  0
   70.2996   17.8304   56.0931 C   0  0  0  0  0  0  0  0  0  0  0  0
   70.5823   16.4577   56.0580 C   0  0  0  0  0  0  0  0  0  0  0  0
   69.7386   15.5713   55.3968 C   0  0  0  0  0  0  0  0  0  0  0  0
   68.6069   16.0742   54.7674 C   0  0  0  0  0  0  0  0  0  0  0  0
   68.3274   17.4503   54.8023 C   0  0  0  0  0  0  0  0  0  0  0  0
   70.1282   14.2634   55.4376 O   0  0  0  0  0  0  0  0  0  0  0  0
   69.2736   13.3141   54.8031 C   0  0  0  0  0  0  0  0  0  0  0  0
   69.8851   11.9368   54.9875 C   0  0  0  0  0  0  0  0  0  0  0  0
   69.4833   20.6709   56.3471 C   0  0  0  0  0  0  0  0  0  0  0  0
   67.9794   20.3980   54.6563 C   0  0  0  0  0  0  0  0  0  0  0  0
   67.9865   21.8757   54.9098 C   0  0  0  0  0  0  0  0  0  0  0  0
   68.9465   22.0483   56.0598 C   0  0  0  0  0  0  0  0  0  0  0  0
   68.8793   19.7678   55.4910 N   0  0  0  0  0  0  0  0  0  0  0  0
   70.2750   20.4546   57.2578 O   0  0  0  0  0  0  0  0  0  0  0  0
   67.2499   19.9170   53.7968 O   0  0  0  0  0  0  0  0  0  0  0  0
   71.3366   22.4648   54.6618 C   0  0  0  0  0  0  0  0  0  0  0  0
   73.4321   22.3088   53.7444 C   0  0  0  0  0  0  0  0  0  0  0  0
   73.0278   21.2568   52.9469 C   0  0  0  0  0  0  0  0  0  0  0  0
   71.7089   20.8642   53.0627 C   0  0  0  0  0  0  0  0  0  0  0  0
   70.8492   21.4650   53.9109 N   0  0  0  0  0  0  0  0  0  0  0  0
   72.5958   22.9197   54.6054 N   0  0  0  0  0  0  0  0  0  0  0  0
   71.1850   19.7216   52.2448 C   0  0  0  0  0  0  0  0  0  0  0  0
   74.8401   22.8206   53.6733 C   0  0  0  0  0  0  0  0  0  0  0  0
   70.2441   23.2974   55.7863 S   0  0  0  0  0  0  0  0  0  0  0  0
   71.0214   18.4580   56.6078 H   0  0  0  0  0  0  0  0  0  0  0  0
   71.4755   16.0840   56.5538 H   0  0  0  0  0  0  0  0  0  0  0  0
   67.9105   15.4309   54.2391 H   0  0  0  0  0  0  0  0  0  0  0  0
   67.4143   17.7660   54.3059 H   0  0  0  0  0  0  0  0  0  0  0  0
   68.2791   13.3283   55.2641 H   0  0  0  0  0  0  0  0  0  0  0  0
   69.1955   13.5294   53.7312 H   0  0  0  0  0  0  0  0  0  0  0  0
   69.2649   11.1687   54.5170 H   0  0  0  0  0  0  0  0  0  0  0  0
   69.9924   11.7019   56.0517 H   0  0  0  0  0  0  0  0  0  0  0  0
   70.8881   11.8986   54.5499 H   0  0  0  0  0  0  0  0  0  0  0  0
   66.9758   22.1926   55.1888 H   0  0  0  0  0  0  0  0  0  0  0  0
   68.3856   22.3680   56.9462 H   0  0  0  0  0  0  0  0  0  0  0  0
   68.2754   22.3995   53.9935 H   0  0  0  0  0  0  0  0  0  0  0  0
   73.7099   20.7670   52.2630 H   0  0  0  0  0  0  0  0  0  0  0  0
   71.3745   19.8966   51.1812 H   0  0  0  0  0  0  0  0  0  0  0  0
   70.1050   19.6073   52.3806 H   0  0  0  0  0  0  0  0  0  0  0  0
   71.6694   18.7885   52.5487 H   0  0  0  0  0  0  0  0  0  0  0  0
   75.0587   23.1857   52.6651 H   0  0  0  0  0  0  0  0  0  0  0  0
   75.5454   22.0238   53.9289 H   0  0  0  0  0  0  0  0  0  0  0  0
   74.9904   23.6470   54.3755 H   0  0  0  0  0  0  0  0  0  0  0  0
  1  2  2  0
  1  6  1  0
  1 14  1  0
  2  3  1  0
  2 26  1  0
  3  4  2  0
  3 27  1  0
  4  5  1  0
  4  7  1  0
  5  6  2  0
  5 28  1  0
  6 29  1  0
  7  8  1  0
  8  9  1  0
  8 30  1  0
  8 31  1  0
  9 32  1  0
  9 33  1  0
  9 34  1  0
 10 13  1  0
 10 14  1  0
 10 15  2  0
 11 12  1  0
 11 14  1  0
 11 16  2  0
 12 13  1  0
 12 35  1  0
 12 37  1  0
 13 25  1  0
 13 36  1  0
 17 21  1  0
 17 22  2  0
 17 25  1  0
 18 19  2  0
 18 22  1  0
 18 24  1  0
 19 20  1  0
 19 38  1  0
 20 21  2  0
 20 23  1  0
 23 39  1  0
 23 40  1  0
 23 41  1  0
 24 42  1  0
 24 43  1  0
 24 44  1  0
A    1
0.1887338
A    2
-0.16376984
A    3
-0.19028212
A    4
0.28545249
A    5
-0.21578358
A    6
-0.15881091
A    7
-0.26154357
A    8
0.08383327
A    9
-0.35012454
A   10
0.5098974
A   11
0.56631595
A   12
-0.29760075
A   13
-0.08414735
A   14
-0.23392393
A   15
-0.46768376
A   16
-0.4798264
A   17
0.37909785
A   18
0.39874792
A   19
-0.40018165
A   20
0.41324377
A   21
-0.48030433
A   22
-0.4921606
A   23
-0.4305006
A   24
-0.42185408
A   25
-0.08947987
A   26
0.15408021
A   27
0.14536946
A   28
0.15708372
A   29
0.1342204
A   30
0.07097669
A   31
0.06369671
A   32
0.10184527
A   33
0.1106549
A   34
0.103094034
A   35
0.14476974
A   36
0.12112349
A   37
0.15180749
A   38
0.15825671
A   39
0.13733986
A   40
0.12796327
A   41
0.13812457
A   42
0.12385472
A   43
0.12923639
A   44
0.119157545
M  END
>  <Name>  (39) 
ligand_55

>  <IC50 (nM)>  (39) 
300000

>  <charge>  (39) 
0

$$$$
ligand_54
     RDKit          3D

 44 46  0  0  0  0  0  0  0  0999 V2000
   71.0964   21.4160   54.1687 C   0  0  0  0  0  0  0  0  0  0  0  0
   71.6898   22.0383   53.0565 C   0  0  0  0  0  0  0  0  0  0  0  0
   72.5175   23.1730   53.1788 C   0  0  0  0  0  0  0  0  0  0  0  0
   72.7794   23.7303   54.4239 C   0  0  0  0  0  0  0  0  0  0  0  0
   72.2157   23.1206   55.5420 C   0  0  0  0  0  0  0  0  0  0  0  0
   71.3907   21.9848   55.4182 C   0  0  0  0  0  0  0  0  0  0  0  0
   73.5479   24.8360   54.6769 O   0  0  0  0  0  0  0  0  0  0  0  0
   74.0745   25.5359   53.5490 C   0  0  0  0  0  0  0  0  0  0  0  0
   74.8398   26.7424   54.0620 C   0  0  0  0  0  0  0  0  0  0  0  0
   69.4500   19.7405   55.0399 C   0  0  0  0  0  0  0  0  0  0  0  0
   70.0280   19.5817   52.8536 C   0  0  0  0  0  0  0  0  0  0  0  0
   68.9029   18.6074   53.0338 C   0  0  0  0  0  0  0  0  0  0  0  0
   68.7417   18.5033   54.5302 C   0  0  0  0  0  0  0  0  0  0  0  0
   70.2269   20.2767   54.0281 N   0  0  0  0  0  0  0  0  0  0  0  0
   69.2895   20.1527   56.1833 O   0  0  0  0  0  0  0  0  0  0  0  0
   70.5969   19.6938   51.7752 O   0  0  0  0  0  0  0  0  0  0  0  0
   68.3040   15.7811   54.9085 C   0  0  0  0  0  0  0  0  0  0  0  0
   66.3576   15.1060   53.8942 C   0  0  0  0  0  0  0  0  0  0  0  0
   66.4811   13.8452   54.4431 C   0  0  0  0  0  0  0  0  0  0  0  0
   67.5874   13.6238   55.2373 C   0  0  0  0  0  0  0  0  0  0  0  0
   68.5052   14.5801   55.4749 N   0  0  0  0  0  0  0  0  0  0  0  0
   67.2615   16.0844   54.1154 N   0  0  0  0  0  0  0  0  0  0  0  0
   67.8086   12.2868   55.8762 C   0  0  0  0  0  0  0  0  0  0  0  0
   65.1879   15.4335   53.0153 C   0  0  0  0  0  0  0  0  0  0  0  0
   69.5429   17.0186   55.2320 S   0  0  0  0  0  0  0  0  0  0  0  0
   71.5230   21.6874   52.0421 H   0  0  0  0  0  0  0  0  0  0  0  0
   72.9350   23.5897   52.2682 H   0  0  0  0  0  0  0  0  0  0  0  0
   72.4145   23.5323   56.5303 H   0  0  0  0  0  0  0  0  0  0  0  0
   71.0048   21.5708   56.3451 H   0  0  0  0  0  0  0  0  0  0  0  0
   74.7588   24.8886   52.9887 H   0  0  0  0  0  0  0  0  0  0  0  0
   73.2609   25.8766   52.8984 H   0  0  0  0  0  0  0  0  0  0  0  0
   75.2666   27.3146   53.2335 H   0  0  0  0  0  0  0  0  0  0  0  0
   75.6492   26.4298   54.7301 H   0  0  0  0  0  0  0  0  0  0  0  0
   74.1821   27.3976   54.6428 H   0  0  0  0  0  0  0  0  0  0  0  0
   69.1254   17.6614   52.5318 H   0  0  0  0  0  0  0  0  0  0  0  0
   67.6900   18.5555   54.8307 H   0  0  0  0  0  0  0  0  0  0  0  0
   68.0081   19.0452   52.5765 H   0  0  0  0  0  0  0  0  0  0  0  0
   65.7489   13.0694   54.2591 H   0  0  0  0  0  0  0  0  0  0  0  0
   67.8903   11.5099   55.1096 H   0  0  0  0  0  0  0  0  0  0  0  0
   66.9772   12.0454   56.5458 H   0  0  0  0  0  0  0  0  0  0  0  0
   68.7319   12.2827   56.4645 H   0  0  0  0  0  0  0  0  0  0  0  0
   64.2522   15.3121   53.5699 H   0  0  0  0  0  0  0  0  0  0  0  0
   65.1762   14.7761   52.1403 H   0  0  0  0  0  0  0  0  0  0  0  0
   65.2436   16.4686   52.6630 H   0  0  0  0  0  0  0  0  0  0  0  0
  1  2  2  0
  1  6  1  0
  1 14  1  0
  2  3  1  0
  2 26  1  0
  3  4  2  0
  3 27  1  0
  4  5  1  0
  4  7  1  0
  5  6  2  0
  5 28  1  0
  6 29  1  0
  7  8  1  0
  8  9  1  0
  8 30  1  0
  8 31  1  0
  9 32  1  0
  9 33  1  0
  9 34  1  0
 10 13  1  0
 10 14  1  0
 10 15  2  0
 11 12  1  0
 11 14  1  0
 11 16  2  0
 12 13  1  0
 12 35  1  0
 12 37  1  0
 13 25  1  0
 13 36  1  0
 17 21  1  0
 17 22  2  0
 17 25  1  0
 18 19  2  0
 18 22  1  0
 18 24  1  0
 19 20  1  0
 19 38  1  0
 20 21  2  0
 20 23  1  0
 23 39  1  0
 23 40  1  0
 23 41  1  0
 24 42  1  0
 24 43  1  0
 24 44  1  0
A    1
0.17890348
A    2
-0.16148278
A    3
-0.24060237
A    4
0.2949465
A    5
-0.21292117
A    6
-0.16112788
A    7
-0.26876318
A    8
0.07579538
A    9
-0.4015482
A   10
0.51938707
A   11
0.55460227
A   12
-0.28489035
A   13
-0.07995291
A   14
-0.26861173
A   15
-0.44033277
A   16
-0.4351355
A   17
0.3782162
A   18
0.43136993
A   19
-0.36458325
A   20
0.3810374
A   21
-0.4915009
A   22
-0.47599617
A   23
-0.4346801
A   24
-0.43588272
A   25
-0.08304932
A   26
0.14269876
A   27
0.15623453
A   28
0.1583608
A   29
0.14322633
A   30
0.075901285
A   31
0.07025666
A   32
0.11699507
A   33
0.1133117
A   34
0.118139
A   35
0.14907187
A   36
0.127579
A   37
0.15363103
A   38
0.16237418
A   39
0.12802912
A   40
0.11326329
A   41
0.11309453
A   42
0.12946045
A   43
0.12052359
A   44
0.13465196
M  END
>  <Name>  (40) 
ligand_54

>  <IC50 (nM)>  (40) 
300000

>  <charge>  (40) 
0

$$$$
ligand_79
     RDKit          3D

 28 30  0  0  0  0  0  0  0  0999 V2000
   66.7924   17.3072   52.5437 C   0  0  0  0  0  0  0  0  0  0  0  0
   65.9355   16.7327   53.4640 C   0  0  0  0  0  0  0  0  0  0  0  0
   64.8207   16.0922   52.8406 C   0  0  0  0  0  0  0  0  0  0  0  0
   64.8844   16.2093   51.4762 C   0  0  0  0  0  0  0  0  0  0  0  0
   63.7602   15.5809   50.3354 Cl  0  0  0  0  0  0  0  0  0  0  0  0
   66.2375   17.0737   50.9398 S   0  0  0  0  0  0  0  0  0  0  0  0
   68.0419   18.0227   52.9293 C   0  0  0  0  0  0  0  0  0  0  0  0
   69.5894   18.7363   54.3607 C   0  0  0  0  0  0  0  0  0  0  0  0
   68.8695   18.6800   52.0428 C   0  0  0  0  0  0  0  0  0  0  0  0
   68.4681   18.0539   54.2500 N   0  0  0  0  0  0  0  0  0  0  0  0
   70.2190   19.3329   52.8720 S   0  0  0  0  0  0  0  0  0  0  0  0
   70.3560   18.8941   55.6263 C   0  0  0  0  0  0  0  0  0  0  0  0
   69.7892   20.3116   56.5348 S   0  0  0  0  0  0  0  0  0  0  0  0
   70.6444   20.4895   57.6957 O   0  0  0  0  0  0  0  0  0  0  0  0
   68.3463   20.2879   56.6796 O   0  0  0  0  0  0  0  0  0  0  0  0
   70.1147   21.7245   55.4994 C   0  0  0  0  0  0  0  0  0  0  0  0
   69.2695   22.6048   54.8503 C   0  0  0  0  0  0  0  0  0  0  0  0
   69.9801   23.6018   54.1217 C   0  0  0  0  0  0  0  0  0  0  0  0
   71.3438   23.4531   54.2435 C   0  0  0  0  0  0  0  0  0  0  0  0
   71.7590   22.1172   55.2282 S   0  0  0  0  0  0  0  0  0  0  0  0
   66.1013   16.7681   54.5353 H   0  0  0  0  0  0  0  0  0  0  0  0
   64.0294   15.5767   53.3701 H   0  0  0  0  0  0  0  0  0  0  0  0
   68.7670   18.7994   50.9738 H   0  0  0  0  0  0  0  0  0  0  0  0
   71.4334   18.9892   55.4647 H   0  0  0  0  0  0  0  0  0  0  0  0
   70.1927   18.0253   56.2729 H   0  0  0  0  0  0  0  0  0  0  0  0
   68.1889   22.5299   54.9058 H   0  0  0  0  0  0  0  0  0  0  0  0
   69.5144   24.3909   53.5432 H   0  0  0  0  0  0  0  0  0  0  0  0
   72.1192   24.0690   53.8070 H   0  0  0  0  0  0  0  0  0  0  0  0
  1  2  2  0
  1  6  1  0
  1  7  1  0
  2  3  1  0
  2 21  1  0
  3  4  2  0
  3 22  1  0
  4  5  1  0
  4  6  1  0
  7  9  2  0
  7 10  1  0
  8 10  2  0
  8 11  1  0
  8 12  1  0
  9 11  1  0
  9 23  1  0
 12 13  1  0
 12 24  1  0
 12 25  1  0
 13 14  2  0
 13 15  2  0
 13 16  1  0
 16 17  2  0
 16 20  1  0
 17 18  1  0
 17 26  1  0
 18 19  2  0
 18 27  1  0
 19 20  1  0
 19 28  1  0
A    1
-0.05092626
A    2
-0.13848145
A    3
-0.19692226
A    4
0.043169316
A    5
-0.0316012
A    6
0.06812003
A    7
0.19758533
A    8
0.22891508
A    9
-0.26740643
A   10
-0.39168566
A   11
0.07369967
A   12
-0.3791046
A   13
1.1087239
A   14
-0.52625024
A   15
-0.5524895
A   16
-0.21722758
A   17
-0.13401978
A   18
-0.11783252
A   19
-0.15678968
A   20
0.13373809
A   21
0.15672834
A   22
0.15930372
A   23
0.17784862
A   24
0.16522463
A   25
0.17315198
A   26
0.16650037
A   27
0.14041561
A   28
0.16761243
M  END
>  <Name>  (41) 
ligand_79

>  <IC50 (nM)>  (41) 
18000

>  <charge>  (41) 
0

$$$$
ligand_62
     RDKit          3D

 39 40  0  0  0  0  0  0  0  0999 V2000
   75.4197   24.0671   50.9842 C   0  0  0  0  0  0  0  0  0  0  0  0
   74.7231   22.6688   50.2202 Cl  0  0  0  0  0  0  0  0  0  0  0  0
   76.2791   25.1379   49.9193 Cl  0  0  0  0  0  0  0  0  0  0  0  0
   75.2787   24.3212   52.2928 C   0  0  0  0  0  0  0  0  0  0  0  0
   74.5459   23.3677   53.1455 C   0  0  0  0  0  0  0  0  0  0  0  0
   74.9852   22.2821   53.4946 O   0  0  0  0  0  0  0  0  0  0  0  0
   75.9035   25.7137   53.0993 Cl  0  0  0  0  0  0  0  0  0  0  0  0
   73.2901   23.8937   53.4096 O   0  0  0  0  0  0  0  0  0  0  0  0
   72.4331   23.0530   54.1340 C   0  0  0  0  0  0  0  0  0  0  0  0
   71.0458   21.0763   54.3039 C   0  0  0  0  0  0  0  0  0  0  0  0
   71.9461   21.8655   53.5783 C   0  0  0  0  0  0  0  0  0  0  0  0
   72.0096   23.4875   55.3885 C   0  0  0  0  0  0  0  0  0  0  0  0
   71.1087   22.7032   56.1120 C   0  0  0  0  0  0  0  0  0  0  0  0
   70.6335   21.4978   55.5707 C   0  0  0  0  0  0  0  0  0  0  0  0
   69.4847   20.5537   56.5482 S   0  0  0  0  0  0  0  0  0  0  0  0
   70.2754   19.8809   57.5643 O   0  0  0  0  0  0  0  0  0  0  0  0
   68.4316   21.4750   56.9441 O   0  0  0  0  0  0  0  0  0  0  0  0
   68.6965   19.2859   55.5676 C   0  0  0  0  0  0  0  0  0  0  0  0
   69.1606   17.9648   55.6367 C   0  0  0  0  0  0  0  0  0  0  0  0
   67.5451   19.5988   54.8321 C   0  0  0  0  0  0  0  0  0  0  0  0
   66.8667   18.5879   54.1454 C   0  0  0  0  0  0  0  0  0  0  0  0
   67.3500   17.2794   54.1994 C   0  0  0  0  0  0  0  0  0  0  0  0
   68.4814   16.9549   54.9494 C   0  0  0  0  0  0  0  0  0  0  0  0
   66.6362   16.2631   53.5563 O   0  0  0  0  0  0  0  0  0  0  0  0
   67.0900   16.0188   52.2690 C   0  0  0  0  0  0  0  0  0  0  0  0
   68.0028   16.5960   51.6903 O   0  0  0  0  0  0  0  0  0  0  0  0
   66.2492   14.9831   51.6438 C   0  0  0  0  0  0  0  0  0  0  0  0
   66.2940   13.7064   52.0510 C   0  0  0  0  0  0  0  0  0  0  0  0
   65.2752   15.5465   50.3297 Cl  0  0  0  0  0  0  0  0  0  0  0  0
   67.3318   13.1621   53.3325 Cl  0  0  0  0  0  0  0  0  0  0  0  0
   65.3328   12.4616   51.3067 Cl  0  0  0  0  0  0  0  0  0  0  0  0
   70.6916   20.1479   53.8649 H   0  0  0  0  0  0  0  0  0  0  0  0
   72.2661   21.5442   52.5903 H   0  0  0  0  0  0  0  0  0  0  0  0
   72.3765   24.4241   55.8036 H   0  0  0  0  0  0  0  0  0  0  0  0
   70.7797   23.0324   57.0968 H   0  0  0  0  0  0  0  0  0  0  0  0
   70.0332   17.7131   56.2369 H   0  0  0  0  0  0  0  0  0  0  0  0
   67.1616   20.6172   54.8090 H   0  0  0  0  0  0  0  0  0  0  0  0
   65.9581   18.8147   53.5929 H   0  0  0  0  0  0  0  0  0  0  0  0
   68.8191   15.9235   55.0175 H   0  0  0  0  0  0  0  0  0  0  0  0
  1  2  1  0
  1  3  1  0
  1  4  2  3
  4  5  1  0
  4  7  1  0
  5  6  2  0
  5  8  1  0
  8  9  1  0
  9 11  2  0
  9 12  1  0
 10 11  1  0
 10 14  2  0
 10 32  1  0
 11 33  1  0
 12 13  2  0
 12 34  1  0
 13 14  1  0
 13 35  1  0
 14 15  1  0
 15 16  2  0
 15 17  2  0
 15 18  1  0
 18 19  2  0
 18 20  1  0
 19 23  1  0
 19 36  1  0
 20 21  2  0
 20 37  1  0
 21 22  1  0
 21 38  1  0
 22 23  2  0
 22 24  1  0
 23 39  1  0
 24 25  1  0
 25 26  2  0
 25 27  1  0
 27 28  2  3
 27 29  1  0
 28 30  1  0
 28 31  1  0
A    1
0.17043187
A    2
-0.0009772603
A    3
-0.007928481
A    4
-0.097295634
A    5
0.56154776
A    6
-0.45943666
A    7
-0.016015299
A    8
-0.3043366
A    9
0.32430995
A   10
-0.06989244
A   11
-0.22470279
A   12
-0.22619157
A   13
-0.087034285
A   14
-0.116366915
A   15
1.0361038
A   16
-0.54462427
A   17
-0.5299561
A   18
-0.12857026
A   19
-0.08085526
A   20
-0.083849475
A   21
-0.23520263
A   22
0.32940868
A   23
-0.22891563
A   24
-0.3146104
A   25
0.5529546
A   26
-0.46341953
A   27
-0.07987752
A   28
0.14570841
A   29
-0.0042108623
A   30
-0.011878046
A   31
-0.009713045
A   32
0.14682123
A   33
0.14920671
A   34
0.15887141
A   35
0.14310208
A   36
0.14612685
A   37
0.14316799
A   38
0.16059923
A   39
0.15750024
M  END
>  <Name>  (42) 
ligand_62

>  <IC50 (nM)>  (42) 
900

>  <charge>  (42) 
0

$$$$
ligand_107
     RDKit          3D

 46 50  0  0  0  0  0  0  0  0999 V2000
   67.5948   18.7984   53.3519 C   0  0  0  0  0  0  0  0  0  0  0  0
   68.4462   19.4661   54.2347 C   0  0  0  0  0  0  0  0  0  0  0  0
   69.0947   18.7458   55.2330 C   0  0  0  0  0  0  0  0  0  0  0  0
   67.3643   17.4276   53.4843 C   0  0  0  0  0  0  0  0  0  0  0  0
   67.9957   16.7041   54.4998 C   0  0  0  0  0  0  0  0  0  0  0  0
   68.8775   17.3687   55.3510 C   0  0  0  0  0  0  0  0  0  0  0  0
   69.6046   16.7310   56.3236 O   0  0  0  0  0  0  0  0  0  0  0  0
   69.5911   15.3499   56.3479 C   0  0  0  0  0  0  0  0  0  0  0  0
   68.7410   14.5796   55.6422 C   0  0  0  0  0  0  0  0  0  0  0  0
   67.7876   15.2559   54.7136 C   0  0  0  0  0  0  0  0  0  0  0  0
   70.6478   14.7881   57.2035 C   0  0  0  0  0  0  0  0  0  0  0  0
   70.6856   15.0647   58.5886 C   0  0  0  0  0  0  0  0  0  0  0  0
   71.7032   14.5411   59.3968 C   0  0  0  0  0  0  0  0  0  0  0  0
   71.6492   13.9953   56.6223 C   0  0  0  0  0  0  0  0  0  0  0  0
   68.6917   13.1975   55.7096 O   0  0  0  0  0  0  0  0  0  0  0  0
   66.8872   14.6270   54.1724 O   0  0  0  0  0  0  0  0  0  0  0  0
   66.5446   16.8107   52.5845 O   0  0  0  0  0  0  0  0  0  0  0  0
   68.6134   20.7925   53.9648 O   0  0  0  0  0  0  0  0  0  0  0  0
   69.0721   21.6608   55.0026 C   0  0  0  0  0  0  0  0  0  0  0  0
   70.4590   22.1849   54.7005 C   0  0  0  0  0  0  0  0  0  0  0  0
   70.7546   23.5451   54.8991 C   0  0  0  0  0  0  0  0  0  0  0  0
   72.0390   24.0380   54.6519 C   0  0  0  0  0  0  0  0  0  0  0  0
   73.0343   23.1670   54.2121 C   0  0  0  0  0  0  0  0  0  0  0  0
   72.7644   21.8162   54.0179 C   0  0  0  0  0  0  0  0  0  0  0  0
   71.4814   21.3279   54.2623 C   0  0  0  0  0  0  0  0  0  0  0  0
   74.6148   23.7673   53.9023 Cl  0  0  0  0  0  0  0  0  0  0  0  0
   72.6330   13.4942   57.4427 C   0  0  0  0  0  0  0  0  0  0  0  0
   72.6619   13.7582   58.7909 C   0  0  0  0  0  0  0  0  0  0  0  0
   73.7179   13.1660   59.4091 O   0  0  0  0  0  0  0  0  0  0  0  0
   74.3455   12.4986   58.2926 C   0  0  0  0  0  0  0  0  0  0  0  0
   73.6591   12.7014   57.0410 O   0  0  0  0  0  0  0  0  0  0  0  0
   67.1190   19.3661   52.5562 H   0  0  0  0  0  0  0  0  0  0  0  0
   69.8068   19.2123   55.9062 H   0  0  0  0  0  0  0  0  0  0  0  0
   69.9197   15.6924   59.0406 H   0  0  0  0  0  0  0  0  0  0  0  0
   71.7445   14.7436   60.4625 H   0  0  0  0  0  0  0  0  0  0  0  0
   71.6666   13.7778   55.5583 H   0  0  0  0  0  0  0  0  0  0  0  0
   69.2300   12.8870   56.4553 H   0  0  0  0  0  0  0  0  0  0  0  0
   66.1922   17.4553   51.9494 H   0  0  0  0  0  0  0  0  0  0  0  0
   69.0358   21.2213   56.0054 H   0  0  0  0  0  0  0  0  0  0  0  0
   68.3671   22.5008   55.0163 H   0  0  0  0  0  0  0  0  0  0  0  0
   69.9818   24.2306   55.2412 H   0  0  0  0  0  0  0  0  0  0  0  0
   72.2546   25.0931   54.8009 H   0  0  0  0  0  0  0  0  0  0  0  0
   73.5426   21.1416   53.6714 H   0  0  0  0  0  0  0  0  0  0  0  0
   71.2884   20.2721   54.0913 H   0  0  0  0  0  0  0  0  0  0  0  0
   75.3717   12.8715   58.1946 H   0  0  0  0  0  0  0  0  0  0  0  0
   74.3813   11.4235   58.5032 H   0  0  0  0  0  0  0  0  0  0  0  0
  1  2  2  0
  1  4  1  0
  1 32  1  0
  2  3  1  0
  2 18  1  0
  3  6  2  0
  3 33  1  0
  4  5  2  0
  4 17  1  0
  5  6  1  0
  5 10  1  0
  6  7  1  0
  7  8  1  0
  8  9  2  0
  8 11  1  0
  9 10  1  0
  9 15  1  0
 10 16  2  0
 11 12  2  0
 11 14  1  0
 12 13  1  0
 12 34  1  0
 13 28  2  0
 13 35  1  0
 14 27  2  0
 14 36  1  0
 15 37  1  0
 17 38  1  0
 18 19  1  0
 19 20  1  0
 19 39  1  0
 19 40  1  0
 20 21  2  0
 20 25  1  0
 21 22  1  0
 21 41  1  0
 22 23  2  0
 22 42  1  0
 23 24  1  0
 23 26  1  0
 24 25  2  0
 24 43  1  0
 25 44  1  0
 27 28  1  0
 27 31  1  0
 28 29  1  0
 29 30  1  0
 30 31  1  0
 30 45  1  0
 30 46  1  0
A    1
-0.40231764
A    2
0.35191202
A    3
-0.40829495
A    4
0.3995453
A    5
-0.25565878
A    6
0.30298057
A    7
-0.21119119
A    8
0.12806727
A    9
0.13045801
A   10
0.3402476
A   11
0.03357691
A   12
-0.11413525
A   13
-0.21059224
A   14
-0.24125208
A   15
-0.5330303
A   16
-0.45852727
A   17
-0.51282936
A   18
-0.22284852
A   19
-0.01920232
A   20
0.06610708
A   21
-0.12660846
A   22
-0.16429518
A   23
0.15677524
A   24
-0.16555594
A   25
-0.12851913
A   26
-0.09867461
A   27
0.14899649
A   28
0.1649499
A   29
-0.28416178
A   30
0.1352558
A   31
-0.28080976
A   32
0.1849263
A   33
0.16617791
A   34
0.14334774
A   35
0.1396789
A   36
0.14960305
A   37
0.37926808
A   38
0.39960334
A   39
0.08642011
A   40
0.09725073
A   41
0.13732423
A   42
0.14686026
A   43
0.1473722
A   44
0.13414538
A   45
0.082518324
A   46
0.085135944
M  END
>  <Name>  (43) 
ligand_107

>  <IC50 (nM)>  (43) 
9300

>  <charge>  (43) 
0

$$$$
ligand_116
     RDKit          3D

 52 56  0  0  0  0  0  0  0  0999 V2000
   66.3602   16.8535   51.5023 C   0  0  0  0  0  0  0  0  0  0  0  0
   65.8855   15.5815   51.1920 C   0  0  0  0  0  0  0  0  0  0  0  0
   66.3124   14.5079   51.9544 C   0  0  0  0  0  0  0  0  0  0  0  0
   67.2003   14.7036   53.0165 C   0  0  0  0  0  0  0  0  0  0  0  0
   67.6954   15.9888   53.3623 C   0  0  0  0  0  0  0  0  0  0  0  0
   67.2637   17.0958   52.5778 C   0  0  0  0  0  0  0  0  0  0  0  0
   68.5744   16.0498   54.5514 C   0  0  0  0  0  0  0  0  0  0  0  0
   69.3947   14.9631   54.7679 O   0  0  0  0  0  0  0  0  0  0  0  0
   70.1599   15.1666   55.9230 C   0  0  0  0  0  0  0  0  0  0  0  0
   69.7661   16.3975   56.4259 C   0  0  0  0  0  0  0  0  0  0  0  0
   68.7568   16.9341   55.5873 C   0  0  0  0  0  0  0  0  0  0  0  0
   71.1255   14.1889   56.3334 C   0  0  0  0  0  0  0  0  0  0  0  0
   71.9181   14.1460   57.4215 C   0  0  0  0  0  0  0  0  0  0  0  0
   72.1119   15.0382   58.5996 C   0  0  0  0  0  0  0  0  0  0  0  0
   73.1775   14.4373   59.3049 N   0  0  0  0  0  0  0  0  0  0  0  0
   73.6216   13.2224   58.7568 N   0  0  0  0  0  0  0  0  0  0  0  0
   72.8982   13.0518   57.6788 C   0  0  0  0  0  0  0  0  0  0  0  0
   71.4407   16.0162   58.8596 O   0  0  0  0  0  0  0  0  0  0  0  0
   73.8100   14.9299   60.4801 C   0  0  0  0  0  0  0  0  0  0  0  0
   74.7569   14.1316   61.1406 C   0  0  0  0  0  0  0  0  0  0  0  0
   75.3967   14.5770   62.2977 C   0  0  0  0  0  0  0  0  0  0  0  0
   75.1097   15.8428   62.8056 C   0  0  0  0  0  0  0  0  0  0  0  0
   74.1851   16.6848   62.1664 C   0  0  0  0  0  0  0  0  0  0  0  0
   73.5374   16.2059   61.0054 C   0  0  0  0  0  0  0  0  0  0  0  0
   73.9055   18.0815   62.7117 C   0  0  0  0  0  0  0  0  0  0  0  0
   74.4626   18.4006   63.8218 O   0  0  0  0  0  0  0  0  0  0  0  0
   73.1399   18.8349   62.0286 O   0  0  0  0  0  0  0  0  0  0  0  0
   73.0115   11.8784   56.8096 C   0  0  0  0  0  0  0  0  0  0  0  0
   67.7037   18.5558   52.7648 C   0  0  0  0  0  0  0  0  0  0  0  0
   68.7339   18.7963   53.4651 O   0  0  0  0  0  0  0  0  0  0  0  0
   67.0032   19.4308   52.1331 O   0  0  0  0  0  0  0  0  0  0  0  0
   65.7219   12.9289   51.5907 Cl  0  0  0  0  0  0  0  0  0  0  0  0
   72.0896   10.8354   56.9506 C   0  0  0  0  0  0  0  0  0  0  0  0
   72.1835    9.7213   56.1199 C   0  0  0  0  0  0  0  0  0  0  0  0
   73.1932    9.6593   55.1572 C   0  0  0  0  0  0  0  0  0  0  0  0
   74.1163   10.6981   55.0212 C   0  0  0  0  0  0  0  0  0  0  0  0
   74.0265   11.8158   55.8508 C   0  0  0  0  0  0  0  0  0  0  0  0
   66.0257   17.6956   50.8928 H   0  0  0  0  0  0  0  0  0  0  0  0
   65.1914   15.4544   50.3657 H   0  0  0  0  0  0  0  0  0  0  0  0
   67.5097   13.8518   53.6204 H   0  0  0  0  0  0  0  0  0  0  0  0
   70.1528   16.9039   57.2957 H   0  0  0  0  0  0  0  0  0  0  0  0
   68.2579   17.8867   55.7084 H   0  0  0  0  0  0  0  0  0  0  0  0
   71.2050   13.3802   55.6130 H   0  0  0  0  0  0  0  0  0  0  0  0
   74.9939   13.1487   60.7481 H   0  0  0  0  0  0  0  0  0  0  0  0
   76.1205   13.9442   62.8003 H   0  0  0  0  0  0  0  0  0  0  0  0
   75.6121   16.1964   63.7036 H   0  0  0  0  0  0  0  0  0  0  0  0
   72.8303   16.8780   60.5164 H   0  0  0  0  0  0  0  0  0  0  0  0
   71.2990   10.9092   57.6940 H   0  0  0  0  0  0  0  0  0  0  0  0
   71.4786    8.8986   56.2192 H   0  0  0  0  0  0  0  0  0  0  0  0
   73.2646    8.7913   54.5080 H   0  0  0  0  0  0  0  0  0  0  0  0
   74.8993   10.6298   54.2682 H   0  0  0  0  0  0  0  0  0  0  0  0
   74.7194   12.6464   55.7376 H   0  0  0  0  0  0  0  0  0  0  0  0
  1  2  2  0
  1  6  1  0
  1 38  1  0
  2  3  1  0
  2 39  1  0
  3  4  2  0
  3 32  1  0
  4  5  1  0
  4 40  1  0
  5  6  2  0
  5  7  1  0
  6 29  1  0
  7  8  1  0
  7 11  2  0
  8  9  1  0
  9 10  2  0
  9 12  1  0
 10 11  1  0
 10 41  1  0
 11 42  1  0
 12 13  2  0
 12 43  1  0
 13 14  1  0
 13 17  1  0
 14 15  1  0
 14 18  2  0
 15 16  1  0
 15 19  1  0
 16 17  2  0
 17 28  1  0
 19 20  2  0
 19 24  1  0
 20 21  1  0
 20 44  1  0
 21 22  2  0
 21 45  1  0
 22 23  1  0
 22 46  1  0
 23 24  2  0
 23 25  1  0
 24 47  1  0
 25 26  1  0
 25 27  2  0
 28 33  2  0
 28 37  1  0
 29 30  2  0
 29 31  1  0
 33 34  1  0
 33 48  1  0
 34 35  2  0
 34 49  1  0
 35 36  1  0
 35 50  1  0
 36 37  2  0
 36 51  1  0
 37 52  1  0
M  CHG  2  26  -1  31  -1
A    1
-0.10578098
A    2
-0.17699276
A    3
0.14006792
A    4
-0.22569893
A    5
0.01431726
A    6
-0.09060484
A    7
0.20046084
A    8
-0.23047997
A    9
0.24311863
A   10
-0.27191335
A   11
-0.24581417
A   12
-0.21567373
A   13
-0.090500504
A   14
0.42822477
A   15
-0.055764396
A   16
-0.2977508
A   17
0.15664403
A   18
-0.5097943
A   19
0.163019
A   20
-0.22351234
A   21
-0.0895162
A   22
-0.13222635
A   23
-0.04066969
A   24
-0.25258166
A   25
0.52601093
A   26
-0.644057
A   27
-0.5834822
A   28
0.036681537
A   29
0.52795285
A   30
-0.60288566
A   31
-0.62556684
A   32
-0.094058216
A   33
-0.13989975
A   34
-0.10507891
A   35
-0.11545076
A   36
-0.08520873
A   37
-0.13480331
A   38
0.12755935
A   39
0.1381311
A   40
0.13736139
A   41
0.15075372
A   42
0.16281198
A   43
0.14821567
A   44
0.12608698
A   45
0.12034704
A   46
0.13121082
A   47
0.12118294
A   48
0.11913615
A   49
0.118012816
A   50
0.114512414
A   51
0.11267813
A   52
0.12126797
M  END
>  <Name>  (44) 
ligand_116

>  <IC50 (nM)>  (44) 
44700

>  <charge>  (44) 
-2

$$$$
ligand_92
     RDKit          3D

 43 45  0  0  0  0  0  0  0  0999 V2000
   64.9642   22.2051   46.7533 C   0  0  0  0  0  0  0  0  0  0  0  0
   64.4798   22.7671   47.9403 C   0  0  0  0  0  0  0  0  0  0  0  0
   65.1864   22.6236   49.1366 C   0  0  0  0  0  0  0  0  0  0  0  0
   66.3935   21.9141   49.1909 C   0  0  0  0  0  0  0  0  0  0  0  0
   66.1722   21.4962   46.7868 C   0  0  0  0  0  0  0  0  0  0  0  0
   66.8710   20.8770   45.7869 N   0  0  0  0  0  0  0  0  0  0  0  0
   66.8523   21.3576   47.9909 C   0  0  0  0  0  0  0  0  0  0  0  0
   67.9422   20.6042   47.6351 N   0  0  0  0  0  0  0  0  0  0  0  0
   67.9713   20.3566   46.3122 N   0  0  0  0  0  0  0  0  0  0  0  0
   69.0465   20.1888   48.4699 C   0  0  0  0  0  0  0  0  0  0  0  0
   68.5928   19.1923   49.5065 C   0  0  0  0  0  0  0  0  0  0  0  0
   68.8094   19.5203   50.9370 C   0  0  0  0  0  0  0  0  0  0  0  0
   68.0201   18.1430   49.2224 O   0  0  0  0  0  0  0  0  0  0  0  0
   67.8317   19.1305   51.8563 C   0  0  0  0  0  0  0  0  0  0  0  0
   69.9440   20.2088   51.3740 C   0  0  0  0  0  0  0  0  0  0  0  0
   70.0817   20.5261   52.7280 C   0  0  0  0  0  0  0  0  0  0  0  0
   69.1002   20.1588   53.6570 C   0  0  0  0  0  0  0  0  0  0  0  0
   67.9778   19.4561   53.2047 C   0  0  0  0  0  0  0  0  0  0  0  0
   69.2221   20.4482   55.0152 N   0  0  0  0  0  0  0  0  0  0  0  0
   69.2604   21.8638   55.4049 C   0  0  0  0  0  0  0  0  0  0  0  0
   70.0872   19.5300   55.7705 C   0  0  0  0  0  0  0  0  0  0  0  0
   67.9702   22.5863   55.0405 C   0  0  0  0  0  0  0  0  0  0  0  0
   69.4363   18.1694   55.9747 C   0  0  0  0  0  0  0  0  0  0  0  0
   64.4234   22.3143   45.8204 H   0  0  0  0  0  0  0  0  0  0  0  0
   63.5431   23.3218   47.9223 H   0  0  0  0  0  0  0  0  0  0  0  0
   64.7891   23.0694   50.0469 H   0  0  0  0  0  0  0  0  0  0  0  0
   66.9301   21.8077   50.1268 H   0  0  0  0  0  0  0  0  0  0  0  0
   69.8197   19.7265   47.8478 H   0  0  0  0  0  0  0  0  0  0  0  0
   69.4579   21.1015   48.9086 H   0  0  0  0  0  0  0  0  0  0  0  0
   66.9512   18.5805   51.5295 H   0  0  0  0  0  0  0  0  0  0  0  0
   70.7420   20.4889   50.6927 H   0  0  0  0  0  0  0  0  0  0  0  0
   70.9732   21.0505   53.0630 H   0  0  0  0  0  0  0  0  0  0  0  0
   67.2108   19.1571   53.9156 H   0  0  0  0  0  0  0  0  0  0  0  0
   69.3815   21.9399   56.4922 H   0  0  0  0  0  0  0  0  0  0  0  0
   70.1225   22.3710   54.9559 H   0  0  0  0  0  0  0  0  0  0  0  0
   71.0630   19.4181   55.2818 H   0  0  0  0  0  0  0  0  0  0  0  0
   70.2874   19.9471   56.7651 H   0  0  0  0  0  0  0  0  0  0  0  0
   67.9896   23.6100   55.4277 H   0  0  0  0  0  0  0  0  0  0  0  0
   67.1004   22.0759   55.4673 H   0  0  0  0  0  0  0  0  0  0  0  0
   67.8308   22.6435   53.9562 H   0  0  0  0  0  0  0  0  0  0  0  0
   70.0502   17.5552   56.6414 H   0  0  0  0  0  0  0  0  0  0  0  0
   69.3306   17.6261   55.0308 H   0  0  0  0  0  0  0  0  0  0  0  0
   68.4424   18.2717   56.4227 H   0  0  0  0  0  0  0  0  0  0  0  0
  1  2  2  0
  1  5  1  0
  1 24  1  0
  2  3  1  0
  2 25  1  0
  3  4  2  0
  3 26  1  0
  4  7  1  0
  4 27  1  0
  5  6  1  0
  5  7  2  0
  6  9  2  0
  7  8  1  0
  8  9  1  0
  8 10  1  0
 10 11  1  0
 10 28  1  0
 10 29  1  0
 11 12  1  0
 11 13  2  0
 12 14  2  0
 12 15  1  0
 14 18  1  0
 14 30  1  0
 15 16  2  0
 15 31  1  0
 16 17  1  0
 16 32  1  0
 17 18  2  0
 17 19  1  0
 18 33  1  0
 19 20  1  0
 19 21  1  0
 20 22  1  0
 20 34  1  0
 20 35  1  0
 21 23  1  0
 21 36  1  0
 21 37  1  0
 22 38  1  0
 22 39  1  0
 22 40  1  0
 23 41  1  0
 23 42  1  0
 23 43  1  0
A    1
-0.14791247
A    2
-0.10471981
A    3
-0.084277086
A    4
-0.1747823
A    5
0.116770074
A    6
-0.28092182
A    7
0.03342458
A    8
0.15413195
A    9
-0.12513278
A   10
-0.21062997
A   11
0.46523058
A   12
-0.047061976
A   13
-0.4381719
A   14
-0.10635687
A   15
-0.09914114
A   16
-0.20493823
A   17
0.18077831
A   18
-0.20368779
A   19
-0.19598581
A   20
-0.012792026
A   21
-0.001200139
A   22
-0.37188867
A   23
-0.37047082
A   24
0.13687775
A   25
0.12930413
A   26
0.1334755
A   27
0.14998046
A   28
0.12286583
A   29
0.11862611
A   30
0.13885191
A   31
0.1419545
A   32
0.14135097
A   33
0.13528901
A   34
0.074573375
A   35
0.06916708
A   36
0.06838702
A   37
0.07525284
A   38
0.10810911
A   39
0.10607022
A   40
0.099549726
A   41
0.096172966
A   42
0.0952554
A   43
0.08862224
M  END
>  <Name>  (45) 
ligand_92

>  <charge>  (45) 
0

$$$$
ligand_65
     RDKit          3D

 33 34  0  0  0  0  0  0  0  0999 V2000
   71.8439   20.5472   55.2611 C   0  0  0  0  0  0  0  0  0  0  0  0
   72.9066   21.0205   54.4942 C   0  0  0  0  0  0  0  0  0  0  0  0
   72.7275   22.1280   53.6637 C   0  0  0  0  0  0  0  0  0  0  0  0
   71.4918   22.7758   53.6070 C   0  0  0  0  0  0  0  0  0  0  0  0
   70.4234   22.3120   54.3731 C   0  0  0  0  0  0  0  0  0  0  0  0
   70.6034   21.1896   55.1841 C   0  0  0  0  0  0  0  0  0  0  0  0
   69.2459   20.5353   56.1251 S   0  0  0  0  0  0  0  0  0  0  0  0
   68.0871   21.3857   55.9229 O   0  0  0  0  0  0  0  0  0  0  0  0
   69.7510   20.3084   57.4676 O   0  0  0  0  0  0  0  0  0  0  0  0
   68.8615   18.9499   55.3704 C   0  0  0  0  0  0  0  0  0  0  0  0
   68.2407   18.8478   54.1281 C   0  0  0  0  0  0  0  0  0  0  0  0
   68.3582   16.4547   54.4431 C   0  0  0  0  0  0  0  0  0  0  0  0
   67.9939   17.5502   53.6275 C   0  0  0  0  0  0  0  0  0  0  0  0
   68.9750   16.6420   55.6797 C   0  0  0  0  0  0  0  0  0  0  0  0
   69.2411   17.8870   56.1398 N   0  0  0  0  0  0  0  0  0  0  0  0
   67.8920   20.0069   53.3617 C   0  0  0  0  0  0  0  0  0  0  0  0
   67.6360   20.9198   52.6945 N   0  0  0  0  0  0  0  0  0  0  0  0
   67.3118   17.3435   52.2954 C   0  0  0  0  0  0  0  0  0  0  0  0
   68.0827   15.1034   54.0111 N   0  0  0  0  0  0  0  0  0  0  0  0
   66.9022   14.7394   54.0429 O   0  0  0  0  0  0  0  0  0  0  0  0
   69.0474   14.4282   53.6345 O   0  0  0  0  0  0  0  0  0  0  0  0
   69.3781   15.5094   56.5801 C   0  0  0  0  0  0  0  0  0  0  0  0
   71.9910   19.6906   55.9165 H   0  0  0  0  0  0  0  0  0  0  0  0
   73.8771   20.5320   54.5449 H   0  0  0  0  0  0  0  0  0  0  0  0
   73.5566   22.4925   53.0625 H   0  0  0  0  0  0  0  0  0  0  0  0
   71.3614   23.6431   52.9635 H   0  0  0  0  0  0  0  0  0  0  0  0
   69.4639   22.8234   54.3195 H   0  0  0  0  0  0  0  0  0  0  0  0
   67.6205   16.4064   51.8216 H   0  0  0  0  0  0  0  0  0  0  0  0
   67.5722   18.1299   51.5802 H   0  0  0  0  0  0  0  0  0  0  0  0
   66.2260   17.3318   52.4318 H   0  0  0  0  0  0  0  0  0  0  0  0
   69.7624   15.8918   57.5318 H   0  0  0  0  0  0  0  0  0  0  0  0
   70.1701   14.9140   56.1164 H   0  0  0  0  0  0  0  0  0  0  0  0
   68.5192   14.8691   56.8039 H   0  0  0  0  0  0  0  0  0  0  0  0
  1  2  2  0
  1  6  1  0
  1 23  1  0
  2  3  1  0
  2 24  1  0
  3  4  2  0
  3 25  1  0
  4  5  1  0
  4 26  1  0
  5  6  2  0
  5 27  1  0
  6  7  1  0
  7  8  2  0
  7  9  2  0
  7 10  1  0
 10 11  2  0
 10 15  1  0
 11 13  1  0
 11 16  1  0
 12 13  2  0
 12 14  1  0
 12 19  1  0
 13 18  1  0
 14 15  2  0
 14 22  1  0
 16 17  3  0
 18 28  1  0
 18 29  1  0
 18 30  1  0
 19 20  2  0
 19 21  1  0
 22 31  1  0
 22 32  1  0
 22 33  1  0
M  CHG  2  19   1  21  -1
A    1
-0.098992005
A    2
-0.09738893
A    3
-0.083659016
A    4
-0.09053142
A    5
-0.09978141
A    6
-0.106330715
A    7
1.017592
A    8
-0.4845342
A    9
-0.50084364
A   10
0.036431927
A   11
-0.057006482
A   12
-0.12071653
A   13
0.16896881
A   14
0.33100405
A   15
-0.3453166
A   16
0.2821197
A   17
-0.4225591
A   18
-0.41071552
A   19
0.614117
A   20
-0.35498023
A   21
-0.32995576
A   22
-0.44218695
A   23
0.15673043
A   24
0.14409842
A   25
0.14254816
A   26
0.13373733
A   27
0.15734121
A   28
0.14676917
A   29
0.1487975
A   30
0.14449584
A   31
0.15095055
A   32
0.13258548
A   33
0.13721083
M  END
>  <Name>  (46) 
ligand_65

>  <IC50 (nM)>  (46) 
13000

>  <charge>  (46) 
0

$$$$
ligand_66
     RDKit          3D

 36 37  0  0  0  0  0  0  0  0999 V2000
   71.7404   20.4300   55.1914 C   0  0  0  0  0  0  0  0  0  0  0  0
   72.7819   20.9348   54.4145 C   0  0  0  0  0  0  0  0  0  0  0  0
   72.5946   22.0901   53.6440 C   0  0  0  0  0  0  0  0  0  0  0  0
   71.3650   22.7618   53.6951 C   0  0  0  0  0  0  0  0  0  0  0  0
   70.3182   22.2654   54.4722 C   0  0  0  0  0  0  0  0  0  0  0  0
   70.5085   21.0906   55.1998 C   0  0  0  0  0  0  0  0  0  0  0  0
   69.1701   20.3810   56.1273 S   0  0  0  0  0  0  0  0  0  0  0  0
   68.0080   21.2416   56.0027 O   0  0  0  0  0  0  0  0  0  0  0  0
   69.7030   20.0680   57.4414 O   0  0  0  0  0  0  0  0  0  0  0  0
   68.7732   18.8483   55.2763 C   0  0  0  0  0  0  0  0  0  0  0  0
   68.1437   18.8291   54.0342 C   0  0  0  0  0  0  0  0  0  0  0  0
   68.3000   16.4215   54.1705 C   0  0  0  0  0  0  0  0  0  0  0  0
   67.9129   17.5686   53.4406 C   0  0  0  0  0  0  0  0  0  0  0  0
   68.9206   16.5262   55.4151 C   0  0  0  0  0  0  0  0  0  0  0  0
   69.1722   17.7376   55.9638 N   0  0  0  0  0  0  0  0  0  0  0  0
   67.7717   20.0361   53.3578 C   0  0  0  0  0  0  0  0  0  0  0  0
   67.4942   20.9907   52.7612 N   0  0  0  0  0  0  0  0  0  0  0  0
   67.2263   17.4503   52.1000 C   0  0  0  0  0  0  0  0  0  0  0  0
   68.0452   15.1021   53.6390 N   0  0  0  0  0  0  0  0  0  0  0  0
   66.8688   14.7245   53.6302 O   0  0  0  0  0  0  0  0  0  0  0  0
   69.0214   14.4660   53.2259 O   0  0  0  0  0  0  0  0  0  0  0  0
   69.3467   15.3369   56.2275 C   0  0  0  0  0  0  0  0  0  0  0  0
   73.7215   22.6380   52.8196 C   0  0  0  0  0  0  0  0  0  0  0  0
   71.8985   19.5324   55.7866 H   0  0  0  0  0  0  0  0  0  0  0  0
   73.7428   20.4235   54.4114 H   0  0  0  0  0  0  0  0  0  0  0  0
   71.2138   23.6755   53.1227 H   0  0  0  0  0  0  0  0  0  0  0  0
   69.3662   22.7930   54.4882 H   0  0  0  0  0  0  0  0  0  0  0  0
   67.5525   16.5595   51.5540 H   0  0  0  0  0  0  0  0  0  0  0  0
   67.4644   18.2947   51.4459 H   0  0  0  0  0  0  0  0  0  0  0  0
   66.1420   17.4043   52.2406 H   0  0  0  0  0  0  0  0  0  0  0  0
   69.7215   15.6535   57.2068 H   0  0  0  0  0  0  0  0  0  0  0  0
   70.1520   14.7958   55.7219 H   0  0  0  0  0  0  0  0  0  0  0  0
   68.5017   14.6631   56.3996 H   0  0  0  0  0  0  0  0  0  0  0  0
   74.3658   21.8316   52.4536 H   0  0  0  0  0  0  0  0  0  0  0  0
   74.3232   23.3275   53.4198 H   0  0  0  0  0  0  0  0  0  0  0  0
   73.3408   23.1719   51.9425 H   0  0  0  0  0  0  0  0  0  0  0  0
  1  2  2  0
  1  6  1  0
  1 24  1  0
  2  3  1  0
  2 25  1  0
  3  4  2  0
  3 23  1  0
  4  5  1  0
  4 26  1  0
  5  6  2  0
  5 27  1  0
  6  7  1  0
  7  8  2  0
  7  9  2  0
  7 10  1  0
 10 11  2  0
 10 15  1  0
 11 13  1  0
 11 16  1  0
 12 13  2  0
 12 14  1  0
 12 19  1  0
 13 18  1  0
 14 15  2  0
 14 22  1  0
 16 17  3  0
 18 28  1  0
 18 29  1  0
 18 30  1  0
 19 20  1  0
 19 21  2  0
 22 31  1  0
 22 32  1  0
 22 33  1  0
 23 34  1  0
 23 35  1  0
 23 36  1  0
M  CHG  2  19   1  20  -1
A    1
-0.09972006
A    2
-0.16087733
A    3
0.17979635
A    4
-0.15003157
A    5
-0.097746596
A    6
-0.12343445
A    7
1.0615096
A    8
-0.5311918
A    9
-0.47909093
A   10
0.037185393
A   11
-0.045609843
A   12
-0.12720326
A   13
0.15598324
A   14
0.3573318
A   15
-0.3482889
A   16
0.27279168
A   17
-0.41712895
A   18
-0.41892058
A   19
0.64681304
A   20
-0.37205678
A   21
-0.36645895
A   22
-0.41918334
A   23
-0.38486168
A   24
0.15735729
A   25
0.14959814
A   26
0.15139675
A   27
0.14635424
A   28
0.14878286
A   29
0.1445418
A   30
0.14613178
A   31
0.14357744
A   32
0.13578248
A   33
0.14855789
A   34
0.11962746
A   35
0.114925
A   36
0.12376071
M  END
>  <Name>  (47) 
ligand_66

>  <IC50 (nM)>  (47) 
13000

>  <charge>  (47) 
0

$$$$
ligand_63
     RDKit          3D

 27 28  0  0  0  0  0  0  0  0999 V2000
   69.2938   17.6751   55.0227 C   0  0  0  0  0  0  0  0  0  0  0  0
   68.5350   16.8069   54.2349 C   0  0  0  0  0  0  0  0  0  0  0  0
   67.2970   17.2198   53.7407 C   0  0  0  0  0  0  0  0  0  0  0  0
   66.8043   18.4922   54.0334 C   0  0  0  0  0  0  0  0  0  0  0  0
   67.5572   19.3655   54.8212 C   0  0  0  0  0  0  0  0  0  0  0  0
   68.8060   18.9570   55.3000 C   0  0  0  0  0  0  0  0  0  0  0  0
   66.3696   16.1500   52.7645 Cl  0  0  0  0  0  0  0  0  0  0  0  0
   69.7715   20.0632   56.3081 S   0  0  0  0  0  0  0  0  0  0  0  0
   70.6368   19.2336   57.1288 O   0  0  0  0  0  0  0  0  0  0  0  0
   68.8552   20.9932   56.9472 O   0  0  0  0  0  0  0  0  0  0  0  0
   70.7891   20.9651   55.2200 C   0  0  0  0  0  0  0  0  0  0  0  0
   70.3546   22.0735   54.5363 C   0  0  0  0  0  0  0  0  0  0  0  0
   72.0934   20.5862   55.0249 C   0  0  0  0  0  0  0  0  0  0  0  0
   72.4081   22.2691   53.5213 C   0  0  0  0  0  0  0  0  0  0  0  0
   72.9199   21.2231   54.1738 N   0  0  0  0  0  0  0  0  0  0  0  0
   71.1556   22.7160   53.6683 N   0  0  0  0  0  0  0  0  0  0  0  0
   69.0708   22.5761   54.6166 N   0  0  0  0  0  0  0  0  0  0  0  0
   73.2174   22.9210   52.6416 N   0  0  0  0  0  0  0  0  0  0  0  0
   70.2526   17.3410   55.4141 H   0  0  0  0  0  0  0  0  0  0  0  0
   68.9104   15.8108   54.0129 H   0  0  0  0  0  0  0  0  0  0  0  0
   65.8359   18.8076   53.6527 H   0  0  0  0  0  0  0  0  0  0  0  0
   67.1638   20.3537   55.0493 H   0  0  0  0  0  0  0  0  0  0  0  0
   72.5381   19.7398   55.5415 H   0  0  0  0  0  0  0  0  0  0  0  0
   68.6275   22.5863   55.5334 H   0  0  0  0  0  0  0  0  0  0  0  0
   68.9267   23.3963   54.0376 H   0  0  0  0  0  0  0  0  0  0  0  0
   72.8435   23.7098   52.1445 H   0  0  0  0  0  0  0  0  0  0  0  0
   74.1570   22.5845   52.5264 H   0  0  0  0  0  0  0  0  0  0  0  0
  1  2  2  0
  1  6  1  0
  1 19  1  0
  2  3  1  0
  2 20  1  0
  3  4  2  0
  3  7  1  0
  4  5  1  0
  4 21  1  0
  5  6  2  0
  5 22  1  0
  6  8  1  0
  8  9  2  0
  8 10  2  0
  8 11  1  0
 11 12  2  0
 11 13  1  0
 12 16  1  0
 12 17  1  0
 13 15  2  0
 13 23  1  0
 14 15  1  0
 14 16  2  0
 14 18  1  0
 17 24  1  0
 17 25  1  0
 18 26  1  0
 18 27  1  0
A    1
-0.08878141
A    2
-0.1516701
A    3
0.16934794
A    4
-0.16602752
A    5
-0.08227979
A    6
-0.1217327
A    7
-0.0836174
A    8
1.0586683
A    9
-0.52295
A   10
-0.5100653
A   11
-0.33112657
A   12
0.5081995
A   13
0.12894031
A   14
0.6601181
A   15
-0.5216909
A   16
-0.6554658
A   17
-0.686038
A   18
-0.75551075
A   19
0.14143045
A   20
0.16656809
A   21
0.15218805
A   22
0.15174216
A   23
0.123149276
A   24
0.363935
A   25
0.32390437
A   26
0.37014312
A   27
0.35862148
M  END
>  <Name>  (48) 
ligand_63

>  <IC50 (nM)>  (48) 
6000

>  <charge>  (48) 
0

$$$$
ligand_84
     RDKit          3D

 29 31  0  0  0  0  0  0  0  0999 V2000
   69.4389   15.5112   56.1101 C   0  0  0  0  0  0  0  0  0  0  0  0
   69.2683   14.2614   56.7169 C   0  0  0  0  0  0  0  0  0  0  0  0
   68.6759   13.1952   56.0329 C   0  0  0  0  0  0  0  0  0  0  0  0
   68.2345   13.3418   54.7104 C   0  0  0  0  0  0  0  0  0  0  0  0
   68.9839   15.6298   54.7934 C   0  0  0  0  0  0  0  0  0  0  0  0
   68.9522   16.6511   53.8849 N   0  0  0  0  0  0  0  0  0  0  0  0
   68.3996   14.5861   54.0862 C   0  0  0  0  0  0  0  0  0  0  0  0
   68.0883   15.0004   52.8156 N   0  0  0  0  0  0  0  0  0  0  0  0
   68.4721   16.2668   52.6915 N   0  0  0  0  0  0  0  0  0  0  0  0
   69.5763   17.8822   53.9977 O   0  0  0  0  0  0  0  0  0  0  0  0
   68.7682   18.7866   54.5994 C   0  0  0  0  0  0  0  0  0  0  0  0
   67.6680   18.5690   55.0854 O   0  0  0  0  0  0  0  0  0  0  0  0
   69.4511   20.1117   54.6466 C   0  0  0  0  0  0  0  0  0  0  0  0
   69.0917   21.0534   55.6345 C   0  0  0  0  0  0  0  0  0  0  0  0
   70.4345   20.4320   53.6912 C   0  0  0  0  0  0  0  0  0  0  0  0
   71.0889   21.6621   53.7369 C   0  0  0  0  0  0  0  0  0  0  0  0
   70.7714   22.5739   54.7374 C   0  0  0  0  0  0  0  0  0  0  0  0
   69.7886   22.2685   55.6814 C   0  0  0  0  0  0  0  0  0  0  0  0
   68.1737   20.7744   56.6441 N   0  0  0  0  0  0  0  0  0  0  0  0
   69.8878   16.3441   56.6411 H   0  0  0  0  0  0  0  0  0  0  0  0
   69.5996   14.1181   57.7442 H   0  0  0  0  0  0  0  0  0  0  0  0
   68.5552   12.2353   56.5322 H   0  0  0  0  0  0  0  0  0  0  0  0
   67.7804   12.5129   54.1768 H   0  0  0  0  0  0  0  0  0  0  0  0
   70.6979   19.7330   52.9004 H   0  0  0  0  0  0  0  0  0  0  0  0
   71.8481   21.9091   52.9979 H   0  0  0  0  0  0  0  0  0  0  0  0
   71.2891   23.5286   54.7868 H   0  0  0  0  0  0  0  0  0  0  0  0
   69.5668   22.9986   56.4576 H   0  0  0  0  0  0  0  0  0  0  0  0
   67.5556   19.9725   56.5066 H   0  0  0  0  0  0  0  0  0  0  0  0
   67.8267   21.5187   57.2337 H   0  0  0  0  0  0  0  0  0  0  0  0
  1  2  2  0
  1  5  1  0
  1 20  1  0
  2  3  1  0
  2 21  1  0
  3  4  2  0
  3 22  1  0
  4  7  1  0
  4 23  1  0
  5  6  1  0
  5  7  2  0
  6  9  1  0
  6 10  1  0
  7  8  1  0
  8  9  2  0
 10 11  1  0
 11 12  2  0
 11 13  1  0
 13 14  2  0
 13 15  1  0
 14 18  1  0
 14 19  1  0
 15 16  2  0
 15 24  1  0
 16 17  1  0
 16 25  1  0
 17 18  2  0
 17 26  1  0
 18 27  1  0
 19 28  1  0
 19 29  1  0
A    1
-0.15766326
A    2
-0.0785623
A    3
-0.094284296
A    4
-0.16402075
A    5
0.033318788
A    6
0.18341224
A    7
0.12292697
A    8
-0.25045747
A    9
-0.10562402
A   10
-0.23457727
A   11
0.5712104
A   12
-0.47083387
A   13
-0.2005023
A   14
0.3559155
A   15
-0.0842903
A   16
-0.1194275
A   17
-0.07819393
A   18
-0.24609505
A   19
-0.7186877
A   20
0.15526378
A   21
0.13488774
A   22
0.1353611
A   23
0.14377636
A   24
0.13052985
A   25
0.1327787
A   26
0.13219847
A   27
0.13632853
A   28
0.3212211
A   29
0.31409028
M  END
>  <Name>  (49) 
ligand_84

>  <charge>  (49) 
0

$$$$
ligand_60
     RDKit          3D

 34 35  0  0  0  0  0  0  0  0999 V2000
   64.6952   22.1409   47.3232 C   0  0  0  0  0  0  0  0  0  0  0  0
   64.3435   22.8975   46.2078 C   0  0  0  0  0  0  0  0  0  0  0  0
   65.2750   23.0840   45.1919 C   0  0  0  0  0  0  0  0  0  0  0  0
   66.5493   22.5256   45.3043 C   0  0  0  0  0  0  0  0  0  0  0  0
   66.8939   21.7664   46.4316 C   0  0  0  0  0  0  0  0  0  0  0  0
   65.9656   21.5624   47.4552 C   0  0  0  0  0  0  0  0  0  0  0  0
   63.7763   21.9501   48.2835 F   0  0  0  0  0  0  0  0  0  0  0  0
   64.8534   23.9972   43.7915 Cl  0  0  0  0  0  0  0  0  0  0  0  0
   67.3805   20.1567   48.9842 C   0  0  0  0  0  0  0  0  0  0  0  0
   66.2136   20.8057   48.6222 N   0  0  0  0  0  0  0  0  0  0  0  0
   68.4116   20.1187   48.3159 O   0  0  0  0  0  0  0  0  0  0  0  0
   67.2860   19.3805   50.2918 C   0  0  0  0  0  0  0  0  0  0  0  0
   66.6533   20.4305   51.6315 S   0  0  0  0  0  0  0  0  0  0  0  0
   67.4842   19.6543   52.9867 C   0  0  0  0  0  0  0  0  0  0  0  0
   68.0320   17.7691   54.1772 C   0  0  0  0  0  0  0  0  0  0  0  0
   68.8391   19.8826   54.8351 C   0  0  0  0  0  0  0  0  0  0  0  0
   68.7805   18.5185   55.0632 C   0  0  0  0  0  0  0  0  0  0  0  0
   68.1754   20.4583   53.8032 N   0  0  0  0  0  0  0  0  0  0  0  0
   67.3850   18.3237   53.1313 N   0  0  0  0  0  0  0  0  0  0  0  0
   67.9180   16.2841   54.3477 C   0  0  0  0  0  0  0  0  0  0  0  0
   69.6399   20.7715   55.7671 C   0  0  0  0  0  0  0  0  0  0  0  0
   70.0283   21.9504   55.2050 F   0  0  0  0  0  0  0  0  0  0  0  0
   68.9506   21.0972   56.8976 F   0  0  0  0  0  0  0  0  0  0  0  0
   70.7894   20.1738   56.2022 F   0  0  0  0  0  0  0  0  0  0  0  0
   63.3469   23.3226   46.1346 H   0  0  0  0  0  0  0  0  0  0  0  0
   67.2777   22.6722   44.5076 H   0  0  0  0  0  0  0  0  0  0  0  0
   67.8963   21.3517   46.4834 H   0  0  0  0  0  0  0  0  0  0  0  0
   65.4473   20.7739   49.2909 H   0  0  0  0  0  0  0  0  0  0  0  0
   66.6238   18.5210   50.1490 H   0  0  0  0  0  0  0  0  0  0  0  0
   68.2904   19.0157   50.5326 H   0  0  0  0  0  0  0  0  0  0  0  0
   69.3023   18.0594   55.8954 H   0  0  0  0  0  0  0  0  0  0  0  0
   68.9069   15.8194   54.2858 H   0  0  0  0  0  0  0  0  0  0  0  0
   67.2874   15.8491   53.5655 H   0  0  0  0  0  0  0  0  0  0  0  0
   67.4692   16.0481   55.3175 H   0  0  0  0  0  0  0  0  0  0  0  0
  1  2  2  0
  1  6  1  0
  1  7  1  0
  2  3  1  0
  2 25  1  0
  3  4  2  0
  3  8  1  0
  4  5  1  0
  4 26  1  0
  5  6  2  0
  5 27  1  0
  6 10  1  0
  9 10  1  0
  9 11  2  0
  9 12  1  0
 10 28  1  0
 12 13  1  0
 12 29  1  0
 12 30  1  0
 13 14  1  0
 14 18  1  0
 14 19  2  0
 15 17  2  0
 15 19  1  0
 15 20  1  0
 16 17  1  0
 16 18  2  0
 16 21  1  0
 17 31  1  0
 20 32  1  0
 20 33  1  0
 20 34  1  0
 21 22  1  0
 21 23  1  0
 21 24  1  0
A    1
0.19945045
A    2
-0.29649916
A    3
0.17554426
A    4
-0.15722184
A    5
-0.16884126
A    6
0.16637698
A    7
-0.115393035
A    8
-0.09447168
A    9
0.6363309
A   10
-0.4684339
A   11
-0.50541466
A   12
-0.32129768
A   13
-0.04420136
A   14
0.3814242
A   15
0.42551672
A   16
0.060416967
A   17
-0.30386108
A   18
-0.39450768
A   19
-0.48612705
A   20
-0.4280304
A   21
0.6904455
A   22
-0.22229987
A   23
-0.20519765
A   24
-0.21674345
A   25
0.18499576
A   26
0.15857233
A   27
0.15209968
A   28
0.30338827
A   29
0.15165979
A   30
0.16072747
A   31
0.17210922
A   32
0.13803995
A   33
0.13694654
A   34
0.13449669
M  END
>  <Name>  (50) 
ligand_60

>  <IC50 (nM)>  (50) 
500000

>  <charge>  (50) 
0

$$$$
ligand_40
     RDKit          3D

 44 47  0  0  0  0  0  0  0  0999 V2000
   66.4841   21.6044   47.2541 C   0  0  0  0  0  0  0  0  0  0  0  0
   65.6460   22.1338   46.2682 C   0  0  0  0  0  0  0  0  0  0  0  0
   64.5361   22.9113   46.6184 C   0  0  0  0  0  0  0  0  0  0  0  0
   64.2594   23.1610   47.9591 C   0  0  0  0  0  0  0  0  0  0  0  0
   65.0824   22.6384   48.9537 C   0  0  0  0  0  0  0  0  0  0  0  0
   66.1920   21.8626   48.6007 C   0  0  0  0  0  0  0  0  0  0  0  0
   67.6246   20.8207   46.9832 N   0  0  0  0  0  0  0  0  0  0  0  0
   68.1046   20.4358   45.7393 C   0  0  0  0  0  0  0  0  0  0  0  0
   67.6030   20.7086   44.6502 O   0  0  0  0  0  0  0  0  0  0  0  0
   69.3761   19.6037   45.8194 C   0  0  0  0  0  0  0  0  0  0  0  0
   70.8316   20.6385   45.4866 S   0  0  0  0  0  0  0  0  0  0  0  0
   70.8239   21.6540   46.9396 C   0  0  0  0  0  0  0  0  0  0  0  0
   70.9569   23.2028   49.1520 C   0  0  0  0  0  0  0  0  0  0  0  0
   70.5065   21.8998   49.2004 C   0  0  0  0  0  0  0  0  0  0  0  0
   71.3299   23.6602   47.9128 C   0  0  0  0  0  0  0  0  0  0  0  0
   71.2852   22.9036   46.8058 N   0  0  0  0  0  0  0  0  0  0  0  0
   70.4117   21.1165   48.1018 N   0  0  0  0  0  0  0  0  0  0  0  0
   70.1227   21.2742   50.4597 C   0  0  0  0  0  0  0  0  0  0  0  0
   70.2066   21.6215   51.7892 C   0  0  0  0  0  0  0  0  0  0  0  0
   69.6530   20.5229   52.5012 C   0  0  0  0  0  0  0  0  0  0  0  0
   69.5475   20.0412   50.3763 O   0  0  0  0  0  0  0  0  0  0  0  0
   69.2601   19.5685   51.6433 N   0  0  0  0  0  0  0  0  0  0  0  0
   69.5288   20.3493   53.9485 C   0  0  0  0  0  0  0  0  0  0  0  0
   68.8420   21.0838   56.1674 C   0  0  0  0  0  0  0  0  0  0  0  0
   68.9180   21.2998   54.7832 C   0  0  0  0  0  0  0  0  0  0  0  0
   70.0525   19.1813   54.5356 C   0  0  0  0  0  0  0  0  0  0  0  0
   69.9803   18.9723   55.9171 C   0  0  0  0  0  0  0  0  0  0  0  0
   69.3706   19.9219   56.7317 C   0  0  0  0  0  0  0  0  0  0  0  0
   68.2021   22.7550   54.1764 Cl  0  0  0  0  0  0  0  0  0  0  0  0
   62.8948   24.1193   48.3842 Cl  0  0  0  0  0  0  0  0  0  0  0  0
   65.8281   21.9651   45.2119 H   0  0  0  0  0  0  0  0  0  0  0  0
   63.8979   23.3150   45.8364 H   0  0  0  0  0  0  0  0  0  0  0  0
   64.8671   22.8266   50.0020 H   0  0  0  0  0  0  0  0  0  0  0  0
   66.8171   21.4584   49.3937 H   0  0  0  0  0  0  0  0  0  0  0  0
   68.1772   20.5364   47.7878 H   0  0  0  0  0  0  0  0  0  0  0  0
   69.4632   19.0856   46.7794 H   0  0  0  0  0  0  0  0  0  0  0  0
   69.3173   18.8296   45.0468 H   0  0  0  0  0  0  0  0  0  0  0  0
   71.0235   23.8397   50.0233 H   0  0  0  0  0  0  0  0  0  0  0  0
   71.6960   24.6731   47.7665 H   0  0  0  0  0  0  0  0  0  0  0  0
   70.6245   22.5270   52.2028 H   0  0  0  0  0  0  0  0  0  0  0  0
   68.3643   21.8188   56.8133 H   0  0  0  0  0  0  0  0  0  0  0  0
   70.5245   18.4232   53.9119 H   0  0  0  0  0  0  0  0  0  0  0  0
   70.3982   18.0677   56.3551 H   0  0  0  0  0  0  0  0  0  0  0  0
   69.3027   19.7564   57.8058 H   0  0  0  0  0  0  0  0  0  0  0  0
  1  2  2  0
  1  6  1  0
  1  7  1  0
  2  3  1  0
  2 31  1  0
  3  4  2  0
  3 32  1  0
  4  5  1  0
  4 30  1  0
  5  6  2  0
  5 33  1  0
  6 34  1  0
  7  8  1  0
  7 35  1  0
  8  9  2  0
  8 10  1  0
 10 11  1  0
 10 36  1  0
 10 37  1  0
 11 12  1  0
 12 16  1  0
 12 17  2  0
 13 14  2  0
 13 15  1  0
 13 38  1  0
 14 17  1  0
 14 18  1  0
 15 16  2  0
 15 39  1  0
 18 19  2  0
 18 21  1  0
 19 20  1  0
 19 40  1  0
 20 22  2  0
 20 23  1  0
 21 22  1  0
 23 25  1  0
 23 26  2  0
 24 25  2  0
 24 28  1  0
 24 41  1  0
 25 29  1  0
 26 27  1  0
 26 42  1  0
 27 28  2  0
 27 43  1  0
 28 44  1  0
A    1
0.29682028
A    2
-0.21796195
A    3
-0.14201537
A    4
0.12412321
A    5
-0.14641891
A    6
-0.22294763
A    7
-0.50671136
A    8
0.60546213
A    9
-0.5200077
A   10
-0.33167368
A   11
-0.06774949
A   12
0.3530422
A   13
-0.23621139
A   14
0.19491875
A   15
0.10712516
A   16
-0.39280573
A   17
-0.41262
A   18
0.21496455
A   19
-0.3104164
A   20
0.1928642
A   21
-0.062181506
A   22
-0.22548518
A   23
-0.016539585
A   24
-0.17000319
A   25
0.10978801
A   26
-0.12188912
A   27
-0.104991406
A   28
-0.086587384
A   29
-0.07819879
A   30
-0.086361386
A   31
0.14115314
A   32
0.14648429
A   33
0.14668566
A   34
0.14982042
A   35
0.3231286
A   36
0.15600124
A   37
0.17278339
A   38
0.16306597
A   39
0.11958417
A   40
0.18137474
A   41
0.14657518
A   42
0.13425978
A   43
0.14103325
A   44
0.13871914
M  END
>  <Name>  (51) 
ligand_40

>  <IC50 (nM)>  (51) 
15000

>  <charge>  (51) 
0

$$$$
ligand_38
     RDKit          3D

 44 47  0  0  0  0  0  0  0  0999 V2000
   69.3685   17.8672   55.2061 C   0  0  0  0  0  0  0  0  0  0  0  0
   69.8670   17.0663   56.2369 C   0  0  0  0  0  0  0  0  0  0  0  0
   70.2447   15.7416   55.9900 C   0  0  0  0  0  0  0  0  0  0  0  0
   70.1221   15.2115   54.7094 C   0  0  0  0  0  0  0  0  0  0  0  0
   69.6251   15.9958   53.6716 C   0  0  0  0  0  0  0  0  0  0  0  0
   69.2511   17.3209   53.9203 C   0  0  0  0  0  0  0  0  0  0  0  0
   70.5887   13.5823   54.4119 Cl  0  0  0  0  0  0  0  0  0  0  0  0
   68.9805   19.2119   55.3706 N   0  0  0  0  0  0  0  0  0  0  0  0
   68.9830   19.9536   56.5445 C   0  0  0  0  0  0  0  0  0  0  0  0
   69.2935   19.5487   57.6638 O   0  0  0  0  0  0  0  0  0  0  0  0
   68.5504   21.3977   56.3334 C   0  0  0  0  0  0  0  0  0  0  0  0
   70.0024   22.4836   56.2289 S   0  0  0  0  0  0  0  0  0  0  0  0
   70.6977   21.9159   54.6999 C   0  0  0  0  0  0  0  0  0  0  0  0
   71.8068   21.1795   52.3481 C   0  0  0  0  0  0  0  0  0  0  0  0
   70.4388   21.2306   52.5219 C   0  0  0  0  0  0  0  0  0  0  0  0
   72.5638   21.5240   53.4410 C   0  0  0  0  0  0  0  0  0  0  0  0
   72.0336   21.9050   54.6127 N   0  0  0  0  0  0  0  0  0  0  0  0
   69.8654   21.5734   53.6986 N   0  0  0  0  0  0  0  0  0  0  0  0
   69.5218   20.9371   51.4250 C   0  0  0  0  0  0  0  0  0  0  0  0
   69.6586   20.6442   50.0859 C   0  0  0  0  0  0  0  0  0  0  0  0
   68.3318   20.5201   49.5844 C   0  0  0  0  0  0  0  0  0  0  0  0
   68.1916   20.9577   51.7202 O   0  0  0  0  0  0  0  0  0  0  0  0
   67.4513   20.7007   50.5818 N   0  0  0  0  0  0  0  0  0  0  0  0
   67.9055   20.2497   48.2067 C   0  0  0  0  0  0  0  0  0  0  0  0
   66.2846   20.5071   46.3998 C   0  0  0  0  0  0  0  0  0  0  0  0
   66.6849   20.7481   47.7200 C   0  0  0  0  0  0  0  0  0  0  0  0
   68.7118   19.4961   47.3399 C   0  0  0  0  0  0  0  0  0  0  0  0
   68.3062   19.2463   46.0240 C   0  0  0  0  0  0  0  0  0  0  0  0
   67.0942   19.7513   45.5553 C   0  0  0  0  0  0  0  0  0  0  0  0
   69.9831   17.4439   57.2472 H   0  0  0  0  0  0  0  0  0  0  0  0
   70.6332   15.1359   56.8036 H   0  0  0  0  0  0  0  0  0  0  0  0
   69.5222   15.5841   52.6714 H   0  0  0  0  0  0  0  0  0  0  0  0
   68.8583   17.9141   53.0977 H   0  0  0  0  0  0  0  0  0  0  0  0
   68.6980   19.7045   54.5276 H   0  0  0  0  0  0  0  0  0  0  0  0
   67.9085   21.5049   55.4535 H   0  0  0  0  0  0  0  0  0  0  0  0
   67.9528   21.6982   57.2006 H   0  0  0  0  0  0  0  0  0  0  0  0
   72.2756   20.8973   51.4156 H   0  0  0  0  0  0  0  0  0  0  0  0
   73.6501   21.5154   53.4054 H   0  0  0  0  0  0  0  0  0  0  0  0
   70.5792   20.5667   49.5282 H   0  0  0  0  0  0  0  0  0  0  0  0
   65.3426   20.9078   46.0297 H   0  0  0  0  0  0  0  0  0  0  0  0
   66.0364   21.3358   48.3675 H   0  0  0  0  0  0  0  0  0  0  0  0
   69.6566   19.0782   47.6776 H   0  0  0  0  0  0  0  0  0  0  0  0
   68.9376   18.6521   45.3667 H   0  0  0  0  0  0  0  0  0  0  0  0
   66.7785   19.5551   44.5320 H   0  0  0  0  0  0  0  0  0  0  0  0
  1  2  2  0
  1  6  1  0
  1  8  1  0
  2  3  1  0
  2 30  1  0
  3  4  2  0
  3 31  1  0
  4  5  1  0
  4  7  1  0
  5  6  2  0
  5 32  1  0
  6 33  1  0
  8  9  1  0
  8 34  1  0
  9 10  2  0
  9 11  1  0
 11 12  1  0
 11 35  1  0
 11 36  1  0
 12 13  1  0
 13 17  1  0
 13 18  2  0
 14 15  2  0
 14 16  1  0
 14 37  1  0
 15 18  1  0
 15 19  1  0
 16 17  2  0
 16 38  1  0
 19 20  2  0
 19 22  1  0
 20 21  1  0
 20 39  1  0
 21 23  2  0
 21 24  1  0
 22 23  1  0
 24 26  1  0
 24 27  2  0
 25 26  2  0
 25 29  1  0
 25 40  1  0
 26 41  1  0
 27 28  1  0
 27 42  1  0
 28 29  2  0
 28 43  1  0
 29 44  1  0
A    1
0.30204895
A    2
-0.19843562
A    3
-0.15050635
A    4
0.1573153
A    5
-0.15097316
A    6
-0.20676073
A    7
-0.08667349
A    8
-0.52995914
A    9
0.6233814
A   10
-0.54340476
A   11
-0.34790903
A   12
-0.029450012
A   13
0.33017474
A   14
-0.2606051
A   15
0.19141138
A   16
0.110252194
A   17
-0.41025004
A   18
-0.43484232
A   19
0.20492493
A   20
-0.3202813
A   21
0.16940174
A   22
-0.07660021
A   23
-0.23091932
A   24
0.056360494
A   25
-0.08693876
A   26
-0.13009152
A   27
-0.123045705
A   28
-0.09705493
A   29
-0.10270195
A   30
0.1481274
A   31
0.14673582
A   32
0.15123163
A   33
0.14890067
A   34
0.33946985
A   35
0.14786658
A   36
0.17321573
A   37
0.16344306
A   38
0.12185814
A   39
0.18561327
A   40
0.13408121
A   41
0.12602432
A   42
0.12743503
A   43
0.12818934
A   44
0.12994026
M  END
>  <Name>  (52) 
ligand_38

>  <IC50 (nM)>  (52) 
15000

>  <charge>  (52) 
0

$$$$
ligand_43
     RDKit          3D

 44 46  0  0  0  0  0  0  0  0999 V2000
   71.2099   16.3277   55.9318 C   0  0  0  0  0  0  0  0  0  0  0  0
   71.6685   15.0043   55.9070 C   0  0  0  0  0  0  0  0  0  0  0  0
   70.8698   13.9722   55.3980 C   0  0  0  0  0  0  0  0  0  0  0  0
   69.5971   14.2983   54.9145 C   0  0  0  0  0  0  0  0  0  0  0  0
   69.1420   15.6210   54.9387 C   0  0  0  0  0  0  0  0  0  0  0  0
   69.9443   16.6489   55.4451 C   0  0  0  0  0  0  0  0  0  0  0  0
   71.3926   12.5473   55.3857 C   0  0  0  0  0  0  0  0  0  0  0  0
   70.5402   11.6281   56.2639 C   0  0  0  0  0  0  0  0  0  0  0  0
   71.4955   11.9973   53.9610 C   0  0  0  0  0  0  0  0  0  0  0  0
   69.4084   17.9526   55.4324 N   0  0  0  0  0  0  0  0  0  0  0  0
   70.0055   19.1204   55.8774 C   0  0  0  0  0  0  0  0  0  0  0  0
   71.1438   19.2260   56.3277 O   0  0  0  0  0  0  0  0  0  0  0  0
   69.0936   20.3350   55.7787 C   0  0  0  0  0  0  0  0  0  0  0  0
   69.4900   21.3274   54.3111 S   0  0  0  0  0  0  0  0  0  0  0  0
   68.8802   20.2734   53.0228 C   0  0  0  0  0  0  0  0  0  0  0  0
   68.8641   19.7391   50.8023 C   0  0  0  0  0  0  0  0  0  0  0  0
   67.4905   18.5980   52.3011 C   0  0  0  0  0  0  0  0  0  0  0  0
   67.9233   18.7598   51.0016 C   0  0  0  0  0  0  0  0  0  0  0  0
   67.9635   19.3403   53.3261 N   0  0  0  0  0  0  0  0  0  0  0  0
   69.3506   20.5074   51.7894 N   0  0  0  0  0  0  0  0  0  0  0  0
   66.4960   17.5752   52.6626 C   0  0  0  0  0  0  0  0  0  0  0  0
   64.7009   16.2949   53.8003 C   0  0  0  0  0  0  0  0  0  0  0  0
   65.1590   15.6485   52.6765 C   0  0  0  0  0  0  0  0  0  0  0  0
   66.1893   16.3852   52.0214 C   0  0  0  0  0  0  0  0  0  0  0  0
   65.5086   17.7763   54.0604 S   0  0  0  0  0  0  0  0  0  0  0  0
   71.8747   17.0835   56.3377 H   0  0  0  0  0  0  0  0  0  0  0  0
   72.6636   14.7932   56.2935 H   0  0  0  0  0  0  0  0  0  0  0  0
   68.9430   13.5264   54.5163 H   0  0  0  0  0  0  0  0  0  0  0  0
   68.1453   15.8289   54.5622 H   0  0  0  0  0  0  0  0  0  0  0  0
   72.4074   12.5441   55.8057 H   0  0  0  0  0  0  0  0  0  0  0  0
   70.4779   12.0123   57.2881 H   0  0  0  0  0  0  0  0  0  0  0  0
   70.9773   10.6246   56.3085 H   0  0  0  0  0  0  0  0  0  0  0  0
   69.5182   11.5285   55.8821 H   0  0  0  0  0  0  0  0  0  0  0  0
   72.1155   12.6479   53.3340 H   0  0  0  0  0  0  0  0  0  0  0  0
   70.5136   11.9103   53.4832 H   0  0  0  0  0  0  0  0  0  0  0  0
   71.9522   11.0016   53.9652 H   0  0  0  0  0  0  0  0  0  0  0  0
   68.4928   18.0556   55.0009 H   0  0  0  0  0  0  0  0  0  0  0  0
   68.0363   20.0533   55.8013 H   0  0  0  0  0  0  0  0  0  0  0  0
   69.2702   20.9518   56.6666 H   0  0  0  0  0  0  0  0  0  0  0  0
   69.2642   19.9454   49.8136 H   0  0  0  0  0  0  0  0  0  0  0  0
   67.5490   18.1706   50.1763 H   0  0  0  0  0  0  0  0  0  0  0  0
   63.9279   15.9697   54.4837 H   0  0  0  0  0  0  0  0  0  0  0  0
   64.7746   14.6931   52.3398 H   0  0  0  0  0  0  0  0  0  0  0  0
   66.6877   16.0407   51.1232 H   0  0  0  0  0  0  0  0  0  0  0  0
  1  2  2  0
  1  6  1  0
  1 26  1  0
  2  3  1  0
  2 27  1  0
  3  4  2  0
  3  7  1  0
  4  5  1  0
  4 28  1  0
  5  6  2  0
  5 29  1  0
  6 10  1  0
  7  8  1  0
  7  9  1  0
  7 30  1  0
  8 31  1  0
  8 32  1  0
  8 33  1  0
  9 34  1  0
  9 35  1  0
  9 36  1  0
 10 11  1  0
 10 37  1  0
 11 12  2  0
 11 13  1  0
 13 14  1  0
 13 38  1  0
 13 39  1  0
 14 15  1  0
 15 19  1  0
 15 20  2  0
 16 18  2  0
 16 20  1  0
 16 40  1  0
 17 18  1  0
 17 19  2  0
 17 21  1  0
 18 41  1  0
 21 24  2  0
 21 25  1  0
 22 23  2  0
 22 25  1  0
 22 42  1  0
 23 24  1  0
 23 43  1  0
 24 44  1  0
A    1
-0.20060606
A    2
-0.1256947
A    3
0.06661551
A    4
-0.117653556
A    5
-0.20805193
A    6
0.3094374
A    7
0.066097185
A    8
-0.3946657
A    9
-0.41046277
A   10
-0.53513235
A   11
0.61717117
A   12
-0.53687483
A   13
-0.32631415
A   14
-0.039540682
A   15
0.37656385
A   16
0.08458177
A   17
0.2582849
A   18
-0.24364722
A   19
-0.4466592
A   20
-0.39789766
A   21
-0.057248957
A   22
-0.16942063
A   23
-0.11909414
A   24
-0.1277861
A   25
0.08907115
A   26
0.1400753
A   27
0.13897103
A   28
0.13170303
A   29
0.15559447
A   30
0.054630607
A   31
0.09876315
A   32
0.092384815
A   33
0.093947604
A   34
0.09758433
A   35
0.09866521
A   36
0.09178946
A   37
0.3341263
A   38
0.15605874
A   39
0.16974334
A   40
0.11860551
A   41
0.15308258
A   42
0.14717177
A   43
0.15839326
A   44
0.15763716
M  END
>  <Name>  (53) 
ligand_43

>  <IC50 (nM)>  (53) 
40000

>  <charge>  (53) 
0

$$$$
ligand_34
     RDKit          3D

 48 51  0  0  0  0  0  0  0  0999 V2000
   66.2119   17.0355   51.8134 C   0  0  0  0  0  0  0  0  0  0  0  0
   64.9876   16.3554   51.8528 C   0  0  0  0  0  0  0  0  0  0  0  0
   64.9206   15.0777   52.4059 C   0  0  0  0  0  0  0  0  0  0  0  0
   66.0625   14.4663   52.9093 C   0  0  0  0  0  0  0  0  0  0  0  0
   67.2814   15.1434   52.8661 C   0  0  0  0  0  0  0  0  0  0  0  0
   67.3682   16.4368   52.3296 C   0  0  0  0  0  0  0  0  0  0  0  0
   63.4193   14.2448   52.4741 Cl  0  0  0  0  0  0  0  0  0  0  0  0
   68.6412   17.0458   52.3604 N   0  0  0  0  0  0  0  0  0  0  0  0
   68.9955   18.2876   51.8637 C   0  0  0  0  0  0  0  0  0  0  0  0
   68.2293   19.0738   51.3124 O   0  0  0  0  0  0  0  0  0  0  0  0
   70.4823   18.5965   52.0029 C   0  0  0  0  0  0  0  0  0  0  0  0
   70.7629   20.2610   52.6769 S   0  0  0  0  0  0  0  0  0  0  0  0
   70.1197   20.0325   54.3109 C   0  0  0  0  0  0  0  0  0  0  0  0
   69.1930   20.9776   56.1903 C   0  0  0  0  0  0  0  0  0  0  0  0
   69.7068   18.7228   56.1282 C   0  0  0  0  0  0  0  0  0  0  0  0
   69.2033   19.7782   56.8520 C   0  0  0  0  0  0  0  0  0  0  0  0
   70.1755   18.8274   54.8646 N   0  0  0  0  0  0  0  0  0  0  0  0
   69.6540   21.1217   54.9350 N   0  0  0  0  0  0  0  0  0  0  0  0
   69.8492   17.3833   56.6794 C   0  0  0  0  0  0  0  0  0  0  0  0
   70.2844   14.9774   56.6991 C   0  0  0  0  0  0  0  0  0  0  0  0
   70.5419   15.5440   57.9288 C   0  0  0  0  0  0  0  0  0  0  0  0
   70.2677   16.9503   57.9235 C   0  0  0  0  0  0  0  0  0  0  0  0
   69.5009   16.0586   55.6576 S   0  0  0  0  0  0  0  0  0  0  0  0
   70.7109   13.6404   56.2422 C   0  0  0  0  0  0  0  0  0  0  0  0
   71.9719   11.8738   55.8725 C   0  0  0  0  0  0  0  0  0  0  0  0
   71.8220   12.9353   56.7354 C   0  0  0  0  0  0  0  0  0  0  0  0
   70.1635   13.0297   55.1827 N   0  0  0  0  0  0  0  0  0  0  0  0
   70.9391   11.9507   54.9859 N   0  0  0  0  0  0  0  0  0  0  0  0
   70.6279   11.0460   53.9010 C   0  0  0  0  0  0  0  0  0  0  0  0
   72.9675   10.8121   55.8263 C   0  0  0  0  0  0  0  0  0  0  0  0
   73.7853   10.8103   56.9158 F   0  0  0  0  0  0  0  0  0  0  0  0
   72.3810    9.5848   55.8117 F   0  0  0  0  0  0  0  0  0  0  0  0
   73.7766   10.8561   54.7385 F   0  0  0  0  0  0  0  0  0  0  0  0
   66.2209   18.0334   51.3826 H   0  0  0  0  0  0  0  0  0  0  0  0
   64.0949   16.8351   51.4534 H   0  0  0  0  0  0  0  0  0  0  0  0
   66.0149   13.4701   53.3402 H   0  0  0  0  0  0  0  0  0  0  0  0
   68.1603   14.6401   53.2638 H   0  0  0  0  0  0  0  0  0  0  0  0
   69.3653   16.5174   52.8358 H   0  0  0  0  0  0  0  0  0  0  0  0
   71.0052   17.8468   52.6042 H   0  0  0  0  0  0  0  0  0  0  0  0
   70.9151   18.5566   50.9976 H   0  0  0  0  0  0  0  0  0  0  0  0
   68.8119   21.8849   56.6530 H   0  0  0  0  0  0  0  0  0  0  0  0
   68.8407   19.6649   57.8625 H   0  0  0  0  0  0  0  0  0  0  0  0
   70.9861   15.0172   58.7647 H   0  0  0  0  0  0  0  0  0  0  0  0
   70.4902   17.6123   58.7517 H   0  0  0  0  0  0  0  0  0  0  0  0
   72.4763   13.1948   57.5568 H   0  0  0  0  0  0  0  0  0  0  0  0
   69.8889   11.5101   53.2423 H   0  0  0  0  0  0  0  0  0  0  0  0
   70.2221   10.1272   54.3309 H   0  0  0  0  0  0  0  0  0  0  0  0
   71.5415   10.8419   53.3380 H   0  0  0  0  0  0  0  0  0  0  0  0
  1  2  2  0
  1  6  1  0
  1 34  1  0
  2  3  1  0
  2 35  1  0
  3  4  2  0
  3  7  1  0
  4  5  1  0
  4 36  1  0
  5  6  2  0
  5 37  1  0
  6  8  1  0
  8  9  1  0
  8 38  1  0
  9 10  2  0
  9 11  1  0
 11 12  1  0
 11 39  1  0
 11 40  1  0
 12 13  1  0
 13 17  1  0
 13 18  2  0
 14 16  2  0
 14 18  1  0
 14 41  1  0
 15 16  1  0
 15 17  2  0
 15 19  1  0
 16 42  1  0
 19 22  2  0
 19 23  1  0
 20 21  2  0
 20 23  1  0
 20 24  1  0
 21 22  1  0
 21 43  1  0
 22 44  1  0
 24 26  1  0
 24 27  2  0
 25 26  2  0
 25 28  1  0
 25 30  1  0
 26 45  1  0
 27 28  1  0
 28 29  1  0
 29 46  1  0
 29 47  1  0
 29 48  1  0
 30 31  1  0
 30 32  1  0
 30 33  1  0
A    1
-0.19120252
A    2
-0.16105323
A    3
0.14996804
A    4
-0.1476945
A    5
-0.18976611
A    6
0.31348643
A    7
-0.09299689
A    8
-0.52022797
A    9
0.64508057
A   10
-0.51600987
A   11
-0.33066946
A   12
-0.043154523
A   13
0.35857472
A   14
0.10578812
A   15
0.24371889
A   16
-0.24973743
A   17
-0.4415865
A   18
-0.40257952
A   19
-0.04533599
A   20
-0.032306023
A   21
-0.15194681
A   22
-0.14040597
A   23
0.06593519
A   24
0.18488193
A   25
-0.11783133
A   26
-0.29459253
A   27
-0.34924665
A   28
0.24967095
A   29
-0.31454346
A   30
0.666069
A   31
-0.22119841
A   32
-0.23217185
A   33
-0.21781339
A   34
0.14996059
A   35
0.14240406
A   36
0.15518124
A   37
0.14928925
A   38
0.33136845
A   39
0.16772562
A   40
0.15127185
A   41
0.109944224
A   42
0.1567098
A   43
0.15829994
A   44
0.16124202
A   45
0.19067237
A   46
0.12548257
A   47
0.13407217
A   48
0.13727275
M  END
>  <Name>  (54) 
ligand_34

>  <IC50 (nM)>  (54) 
10000

>  <charge>  (54) 
0

$$$$
ligand_108
     RDKit          3D

 32 34  0  0  0  0  0  0  0  0999 V2000
   72.9599   22.5097   53.9346 C   0  0  0  0  0  0  0  0  0  0  0  0
   72.5069   23.8152   54.1172 C   0  0  0  0  0  0  0  0  0  0  0  0
   71.1398   24.0485   54.2330 C   0  0  0  0  0  0  0  0  0  0  0  0
   70.2273   23.0018   54.1725 C   0  0  0  0  0  0  0  0  0  0  0  0
   70.6415   25.3048   54.4026 O   0  0  0  0  0  0  0  0  0  0  0  0
   72.0518   21.4481   53.8699 C   0  0  0  0  0  0  0  0  0  0  0  0
   70.6890   21.7001   53.9868 C   0  0  0  0  0  0  0  0  0  0  0  0
   72.4954   20.0619   53.6670 C   0  0  0  0  0  0  0  0  0  0  0  0
   70.1547   19.4242   53.6488 C   0  0  0  0  0  0  0  0  0  0  0  0
   71.4350   19.0260   53.5199 C   0  0  0  0  0  0  0  0  0  0  0  0
   73.6955   19.8082   53.6084 O   0  0  0  0  0  0  0  0  0  0  0  0
   71.8328   17.7310   53.2407 O   0  0  0  0  0  0  0  0  0  0  0  0
   69.7429   20.7146   53.9196 O   0  0  0  0  0  0  0  0  0  0  0  0
   69.0192   18.5157   53.4708 C   0  0  0  0  0  0  0  0  0  0  0  0
   68.4720   17.8218   54.5617 C   0  0  0  0  0  0  0  0  0  0  0  0
   68.4587   18.3702   52.1976 C   0  0  0  0  0  0  0  0  0  0  0  0
   67.3522   17.5535   52.0350 C   0  0  0  0  0  0  0  0  0  0  0  0
   66.7929   16.8840   53.1190 C   0  0  0  0  0  0  0  0  0  0  0  0
   67.3540   17.0004   54.3862 C   0  0  0  0  0  0  0  0  0  0  0  0
   65.6696   16.1349   52.9034 O   0  0  0  0  0  0  0  0  0  0  0  0
   66.8063   17.4340   50.7922 O   0  0  0  0  0  0  0  0  0  0  0  0
   74.3117   22.3395   53.8153 O   0  0  0  0  0  0  0  0  0  0  0  0
   73.2276   24.6262   54.1621 H   0  0  0  0  0  0  0  0  0  0  0  0
   69.1632   23.2026   54.2612 H   0  0  0  0  0  0  0  0  0  0  0  0
   71.3795   25.9393   54.4064 H   0  0  0  0  0  0  0  0  0  0  0  0
   71.0468   17.1742   53.1109 H   0  0  0  0  0  0  0  0  0  0  0  0
   68.9026   17.9339   55.5552 H   0  0  0  0  0  0  0  0  0  0  0  0
   68.8613   18.9026   51.3396 H   0  0  0  0  0  0  0  0  0  0  0  0
   66.9364   16.4691   55.2372 H   0  0  0  0  0  0  0  0  0  0  0  0
   65.2591   16.0019   53.7749 H   0  0  0  0  0  0  0  0  0  0  0  0
   66.0802   16.7871   50.9000 H   0  0  0  0  0  0  0  0  0  0  0  0
   74.4988   21.3795   53.6985 H   0  0  0  0  0  0  0  0  0  0  0  0
  1  2  2  0
  1  6  1  0
  1 22  1  0
  2  3  1  0
  2 23  1  0
  3  4  2  0
  3  5  1  0
  4  7  1  0
  4 24  1  0
  5 25  1  0
  6  7  2  0
  6  8  1  0
  7 13  1  0
  8 10  1  0
  8 11  2  0
  9 10  2  0
  9 13  1  0
  9 14  1  0
 10 12  1  0
 12 26  1  0
 14 15  2  0
 14 16  1  0
 15 19  1  0
 15 27  1  0
 16 17  2  0
 16 28  1  0
 17 18  1  0
 17 21  1  0
 18 19  2  0
 18 20  1  0
 19 29  1  0
 20 30  1  0
 21 31  1  0
 22 32  1  0
A    1
0.3860287
A    2
-0.42767262
A    3
0.40866223
A    4
-0.40289283
A    5
-0.5368259
A    6
-0.25420347
A    7
0.2886091
A    8
0.35348347
A    9
0.11624918
A   10
0.10507885
A   11
-0.46342924
A   12
-0.5022295
A   13
-0.19778958
A   14
0.03365462
A   15
-0.106755674
A   16
-0.2521775
A   17
0.25906765
A   18
0.26363376
A   19
-0.24097075
A   20
-0.53074485
A   21
-0.5198448
A   22
-0.5379396
A   23
0.16622126
A   24
0.17687568
A   25
0.42905632
A   26
0.3785225
A   27
0.13580385
A   28
0.14957008
A   29
0.14678225
A   30
0.40471625
A   31
0.3820827
A   32
0.38937807
M  END
>  <Name>  (55) 
ligand_108

>  <IC50 (nM)>  (55) 
8100

>  <charge>  (55) 
0

$$$$
ligand_114
     RDKit          3D

 64 66  0  0  0  0  0  0  0  0999 V2000
   69.8623   18.1757   51.3747 O   0  0  0  0  0  0  0  0  0  0  0  0
   72.2462   21.7187   48.7741 O   0  0  0  0  0  0  0  0  0  0  0  0
   68.8000   23.0936   47.8217 O   0  0  0  0  0  0  0  0  0  0  0  0
   69.2135   17.5297   57.6638 O   0  0  0  0  0  0  0  0  0  0  0  0
   69.3757   19.1599   56.1782 O   0  0  0  0  0  0  0  0  0  0  0  0
   72.4796   25.8807   47.6273 N   0  0  0  0  0  0  0  0  0  0  0  0
   70.9365   21.7955   46.8998 N   0  0  0  0  0  0  0  0  0  0  0  0
   68.7739   21.0165   48.8694 N   0  0  0  0  0  0  0  0  0  0  0  0
   69.2517   17.9622   56.4994 N   0  0  0  0  0  0  0  0  0  0  0  0
   72.6533   23.6098   46.5212 C   0  0  0  0  0  0  0  0  0  0  0  0
   71.7344   24.6347   47.1741 C   0  0  0  0  0  0  0  0  0  0  0  0
   71.8966   22.3896   45.9950 C   0  0  0  0  0  0  0  0  0  0  0  0
   73.5951   25.5919   48.6033 C   0  0  0  0  0  0  0  0  0  0  0  0
   72.9026   26.7905   46.5188 C   0  0  0  0  0  0  0  0  0  0  0  0
   71.1936   21.4505   48.2038 C   0  0  0  0  0  0  0  0  0  0  0  0
   70.1079   20.6411   48.8591 C   0  0  0  0  0  0  0  0  0  0  0  0
   70.5689   19.5133   49.4352 C   0  0  0  0  0  0  0  0  0  0  0  0
   69.7560   18.5181   50.0451 C   0  0  0  0  0  0  0  0  0  0  0  0
   69.0325   17.1181   51.6312 C   0  0  0  0  0  0  0  0  0  0  0  0
   69.0365   16.6026   52.9983 C   0  0  0  0  0  0  0  0  0  0  0  0
   68.8127   17.6736   49.4729 C   0  0  0  0  0  0  0  0  0  0  0  0
   68.3665   16.7770   50.4761 C   0  0  0  0  0  0  0  0  0  0  0  0
   68.2097   22.2083   48.4398 C   0  0  0  0  0  0  0  0  0  0  0  0
   66.7469   22.3814   48.7341 C   0  0  0  0  0  0  0  0  0  0  0  0
   69.1743   17.4780   54.0794 C   0  0  0  0  0  0  0  0  0  0  0  0
   68.8786   15.2347   53.2721 C   0  0  0  0  0  0  0  0  0  0  0  0
   69.1434   16.9931   55.4019 C   0  0  0  0  0  0  0  0  0  0  0  0
   66.0600   21.6547   49.7216 C   0  0  0  0  0  0  0  0  0  0  0  0
   66.0415   23.3264   47.9802 C   0  0  0  0  0  0  0  0  0  0  0  0
   63.9841   22.7864   49.1582 C   0  0  0  0  0  0  0  0  0  0  0  0
   68.8728   14.7473   54.5937 C   0  0  0  0  0  0  0  0  0  0  0  0
   64.6840   21.8432   49.9172 C   0  0  0  0  0  0  0  0  0  0  0  0
   64.6754   23.5231   48.1935 C   0  0  0  0  0  0  0  0  0  0  0  0
   69.0015   15.6256   55.6706 C   0  0  0  0  0  0  0  0  0  0  0  0
   62.5028   22.9729   49.3292 C   0  0  0  0  0  0  0  0  0  0  0  0
   70.0141   21.5926   46.5255 H   0  0  0  0  0  0  0  0  0  0  0  0
   68.1563   20.3477   49.3116 H   0  0  0  0  0  0  0  0  0  0  0  0
   73.4132   23.2742   47.2345 H   0  0  0  0  0  0  0  0  0  0  0  0
   73.1993   24.0584   45.6837 H   0  0  0  0  0  0  0  0  0  0  0  0
   70.9479   24.9687   46.4885 H   0  0  0  0  0  0  0  0  0  0  0  0
   71.2564   24.2405   48.0755 H   0  0  0  0  0  0  0  0  0  0  0  0
   72.6111   21.6075   45.7154 H   0  0  0  0  0  0  0  0  0  0  0  0
   71.3412   22.6656   45.0916 H   0  0  0  0  0  0  0  0  0  0  0  0
   73.8893   26.5416   49.0582 H   0  0  0  0  0  0  0  0  0  0  0  0
   74.4357   25.1520   48.0615 H   0  0  0  0  0  0  0  0  0  0  0  0
   73.2124   24.9132   49.3700 H   0  0  0  0  0  0  0  0  0  0  0  0
   73.2662   27.7195   46.9659 H   0  0  0  0  0  0  0  0  0  0  0  0
   72.0306   26.9966   45.8932 H   0  0  0  0  0  0  0  0  0  0  0  0
   73.6941   26.3062   45.9423 H   0  0  0  0  0  0  0  0  0  0  0  0
   71.6383   19.3090   49.4540 H   0  0  0  0  0  0  0  0  0  0  0  0
   68.5149   17.6660   48.4326 H   0  0  0  0  0  0  0  0  0  0  0  0
   67.6483   15.9760   50.3657 H   0  0  0  0  0  0  0  0  0  0  0  0
   69.2907   18.5433   53.8842 H   0  0  0  0  0  0  0  0  0  0  0  0
   68.7728   14.5148   52.4614 H   0  0  0  0  0  0  0  0  0  0  0  0
   66.5613   20.9453   50.3728 H   0  0  0  0  0  0  0  0  0  0  0  0
   66.5384   23.9149   47.2094 H   0  0  0  0  0  0  0  0  0  0  0  0
   68.7656   13.6798   54.7722 H   0  0  0  0  0  0  0  0  0  0  0  0
   64.1557   21.2534   50.6694 H   0  0  0  0  0  0  0  0  0  0  0  0
   64.1470   24.2578   47.5919 H   0  0  0  0  0  0  0  0  0  0  0  0
   68.9883   15.2408   56.6888 H   0  0  0  0  0  0  0  0  0  0  0  0
   62.2220   24.0196   49.1716 H   0  0  0  0  0  0  0  0  0  0  0  0
   62.1887   22.7007   50.3423 H   0  0  0  0  0  0  0  0  0  0  0  0
   61.9624   22.3468   48.6126 H   0  0  0  0  0  0  0  0  0  0  0  0
   71.7750   26.3741   48.1945 H   0  0  0  0  0  0  0  0  0  0  0  0
  1 18  1  0
  1 19  1  0
  2 15  2  0
  3 23  2  0
  4  9  1  0
  5  9  2  0
  6 11  1  0
  6 13  1  0
  6 14  1  0
  6 64  1  0
  7 12  1  0
  7 15  1  0
  7 36  1  0
  8 16  1  0
  8 23  1  0
  8 37  1  0
  9 27  1  0
 10 11  1  0
 10 12  1  0
 10 38  1  0
 10 39  1  0
 11 40  1  0
 11 41  1  0
 12 42  1  0
 12 43  1  0
 13 44  1  0
 13 45  1  0
 13 46  1  0
 14 47  1  0
 14 48  1  0
 14 49  1  0
 15 16  1  0
 16 17  2  0
 17 18  1  0
 17 50  1  0
 18 21  2  0
 19 20  1  0
 19 22  2  0
 20 25  2  0
 20 26  1  0
 21 22  1  0
 21 51  1  0
 22 52  1  0
 23 24  1  0
 24 28  2  0
 24 29  1  0
 25 27  1  0
 25 53  1  0
 26 31  2  0
 26 54  1  0
 27 34  2  0
 28 32  1  0
 28 55  1  0
 29 33  2  0
 29 56  1  0
 30 32  2  0
 30 33  1  0
 30 35  1  0
 31 34  1  0
 31 57  1  0
 32 58  1  0
 33 59  1  0
 34 60  1  0
 35 61  1  0
 35 62  1  0
 35 63  1  0
M  CHG  3   4  -1   6   1   9   1
A    1
-0.22765742
A    2
-0.5200871
A    3
-0.51648796
A    4
-0.33215597
A    5
-0.33405715
A    6
0.06268556
A    7
-0.44503844
A    8
-0.46380332
A    9
0.57567734
A   10
-0.1776102
A   11
-0.07100298
A   12
0.021537434
A   13
-0.2812395
A   14
-0.28035828
A   15
0.55164945
A   16
0.14440943
A   17
-0.33303213
A   18
0.26771432
A   19
0.20520255
A   20
0.03166348
A   21
-0.23122293
A   22
-0.24765682
A   23
0.5798045
A   24
-0.051325552
A   25
-0.15556046
A   26
-0.11672525
A   27
0.028644303
A   28
-0.10650204
A   29
-0.10082459
A   30
0.162448
A   31
-0.09240461
A   32
-0.14875765
A   33
-0.14740457
A   34
-0.12591635
A   35
-0.409285
A   36
0.31230718
A   37
0.33904162
A   38
0.1017831
A   39
0.096892856
A   40
0.09153425
A   41
0.09288917
A   42
0.08169139
A   43
0.08025627
A   44
0.13203317
A   45
0.13135819
A   46
0.12906355
A   47
0.13416928
A   48
0.13288514
A   49
0.12216744
A   50
0.16775392
A   51
0.17751265
A   52
0.1669397
A   53
0.16109897
A   54
0.13138212
A   55
0.13798234
A   56
0.13596264
A   57
0.13755573
A   58
0.12779096
A   59
0.13874185
A   60
0.15505373
A   61
0.11590382
A   62
0.1241012
A   63
0.11180386
A   64
0.31702387
M  END
>  <Name>  (56) 
ligand_114

>  <charge>  (56) 
0

$$$$
ligand_94
     RDKit          3D

 37 39  0  0  0  0  0  0  0  0999 V2000
   71.3361   23.9980   55.1234 C   0  0  0  0  0  0  0  0  0  0  0  0
   72.3927   23.8698   54.2110 C   0  0  0  0  0  0  0  0  0  0  0  0
   72.6600   22.6419   53.5956 C   0  0  0  0  0  0  0  0  0  0  0  0
   71.8847   21.5051   53.8565 C   0  0  0  0  0  0  0  0  0  0  0  0
   70.5535   22.8639   55.4012 C   0  0  0  0  0  0  0  0  0  0  0  0
   69.4764   22.6946   56.2329 N   0  0  0  0  0  0  0  0  0  0  0  0
   70.8359   21.6575   54.7666 C   0  0  0  0  0  0  0  0  0  0  0  0
   69.8806   20.8083   55.2652 N   0  0  0  0  0  0  0  0  0  0  0  0
   69.0620   21.4386   56.1319 N   0  0  0  0  0  0  0  0  0  0  0  0
   69.5565   19.4606   54.8355 C   0  0  0  0  0  0  0  0  0  0  0  0
   70.4615   18.4118   55.4357 C   0  0  0  0  0  0  0  0  0  0  0  0
   69.9981   16.9878   55.4375 C   0  0  0  0  0  0  0  0  0  0  0  0
   68.8955   16.5459   54.7067 C   0  0  0  0  0  0  0  0  0  0  0  0
   70.7121   16.0533   56.1892 C   0  0  0  0  0  0  0  0  0  0  0  0
   70.3210   14.7047   56.2150 C   0  0  0  0  0  0  0  0  0  0  0  0
   69.2114   14.2277   55.4967 C   0  0  0  0  0  0  0  0  0  0  0  0
   68.5166   15.1910   54.7433 C   0  0  0  0  0  0  0  0  0  0  0  0
   68.8276   12.8909   55.5264 N   0  0  0  0  0  0  0  0  0  0  0  0
   71.5782   18.6670   55.8830 O   0  0  0  0  0  0  0  0  0  0  0  0
   69.5610   11.9182   56.3263 C   0  0  0  0  0  0  0  0  0  0  0  0
   67.6563   12.4234   54.7966 C   0  0  0  0  0  0  0  0  0  0  0  0
   71.1252   24.9457   55.6083 H   0  0  0  0  0  0  0  0  0  0  0  0
   73.0149   24.7339   53.9868 H   0  0  0  0  0  0  0  0  0  0  0  0
   73.4935   22.5530   52.9025 H   0  0  0  0  0  0  0  0  0  0  0  0
   72.1099   20.5529   53.3885 H   0  0  0  0  0  0  0  0  0  0  0  0
   69.6390   19.4333   53.7442 H   0  0  0  0  0  0  0  0  0  0  0  0
   68.5164   19.2772   55.1248 H   0  0  0  0  0  0  0  0  0  0  0  0
   68.3070   17.2157   54.0874 H   0  0  0  0  0  0  0  0  0  0  0  0
   71.5823   16.3597   56.7679 H   0  0  0  0  0  0  0  0  0  0  0  0
   70.9198   14.0313   56.8231 H   0  0  0  0  0  0  0  0  0  0  0  0
   67.6487   14.9036   54.1543 H   0  0  0  0  0  0  0  0  0  0  0  0
   69.5269   12.1820   57.3891 H   0  0  0  0  0  0  0  0  0  0  0  0
   70.6050   11.8518   56.0007 H   0  0  0  0  0  0  0  0  0  0  0  0
   69.1388   10.9114   56.2353 H   0  0  0  0  0  0  0  0  0  0  0  0
   67.7729   12.5944   53.7208 H   0  0  0  0  0  0  0  0  0  0  0  0
   66.7502   12.9285   55.1491 H   0  0  0  0  0  0  0  0  0  0  0  0
   67.4926   11.3484   54.9292 H   0  0  0  0  0  0  0  0  0  0  0  0
  1  2  2  0
  1  5  1  0
  1 22  1  0
  2  3  1  0
  2 23  1  0
  3  4  2  0
  3 24  1  0
  4  7  1  0
  4 25  1  0
  5  6  1  0
  5  7  2  0
  6  9  2  0
  7  8  1  0
  8  9  1  0
  8 10  1  0
 10 11  1  0
 10 26  1  0
 10 27  1  0
 11 12  1  0
 11 19  2  0
 12 13  2  0
 12 14  1  0
 13 17  1  0
 13 28  1  0
 14 15  2  0
 14 29  1  0
 15 16  1  0
 15 30  1  0
 16 17  2  0
 16 18  1  0
 17 31  1  0
 18 20  1  0
 18 21  1  0
 20 32  1  0
 20 33  1  0
 20 34  1  0
 21 35  1  0
 21 36  1  0
 21 37  1  0
A    1
-0.15302545
A    2
-0.10377293
A    3
-0.08558675
A    4
-0.18549551
A    5
0.118778214
A    6
-0.25553426
A    7
0.038531266
A    8
0.16982068
A    9
-0.10444303
A   10
-0.21151985
A   11
0.41816142
A   12
-0.053857755
A   13
-0.10466647
A   14
-0.092507616
A   15
-0.19274333
A   16
0.21488231
A   17
-0.23127148
A   18
-0.076170206
A   19
-0.49507445
A   20
-0.2810682
A   21
-0.2831885
A   22
0.13805142
A   23
0.13168372
A   24
0.12788631
A   25
0.1225691
A   26
0.12628686
A   27
0.11815481
A   28
0.13002935
A   29
0.13408494
A   30
0.13769859
A   31
0.15012705
A   32
0.104877666
A   33
0.10597429
A   34
0.104259826
A   35
0.103272475
A   36
0.11188027
A   37
0.10291517
M  END
>  <Name>  (57) 
ligand_94

>  <charge>  (57) 
0

$$$$
ligand_87
     RDKit          3D

 41 43  0  0  0  0  0  0  0  0999 V2000
   72.4809   21.5195   53.9606 C   0  0  0  0  0  0  0  0  0  0  0  0
   73.3648   22.5695   53.6788 C   0  0  0  0  0  0  0  0  0  0  0  0
   73.0993   23.8846   54.0821 C   0  0  0  0  0  0  0  0  0  0  0  0
   71.9272   24.1943   54.7864 C   0  0  0  0  0  0  0  0  0  0  0  0
   71.3240   21.8538   54.6684 C   0  0  0  0  0  0  0  0  0  0  0  0
   70.2511   21.1393   55.1344 N   0  0  0  0  0  0  0  0  0  0  0  0
   71.0291   23.1523   55.0771 C   0  0  0  0  0  0  0  0  0  0  0  0
   69.8159   23.1625   55.7209 N   0  0  0  0  0  0  0  0  0  0  0  0
   69.3286   21.9264   55.7120 N   0  0  0  0  0  0  0  0  0  0  0  0
   69.9151   19.8231   54.8316 O   0  0  0  0  0  0  0  0  0  0  0  0
   70.3972   18.9675   55.7634 C   0  0  0  0  0  0  0  0  0  0  0  0
   71.2040   19.2343   56.6410 O   0  0  0  0  0  0  0  0  0  0  0  0
   69.8207   17.6004   55.5845 C   0  0  0  0  0  0  0  0  0  0  0  0
   68.8524   17.2933   54.6288 C   0  0  0  0  0  0  0  0  0  0  0  0
   70.2550   16.5795   56.4318 C   0  0  0  0  0  0  0  0  0  0  0  0
   69.7267   15.2799   56.3231 C   0  0  0  0  0  0  0  0  0  0  0  0
   68.7465   14.9353   55.3759 C   0  0  0  0  0  0  0  0  0  0  0  0
   68.3327   15.9860   54.5347 C   0  0  0  0  0  0  0  0  0  0  0  0
   68.2180   13.6482   55.2844 N   0  0  0  0  0  0  0  0  0  0  0  0
   68.8577   12.4947   55.9334 C   0  0  0  0  0  0  0  0  0  0  0  0
   66.9804   13.3790   54.5398 C   0  0  0  0  0  0  0  0  0  0  0  0
   67.2725   12.9587   53.1075 C   0  0  0  0  0  0  0  0  0  0  0  0
   70.1480   12.0935   55.2309 C   0  0  0  0  0  0  0  0  0  0  0  0
   72.6948   20.5004   53.6561 H   0  0  0  0  0  0  0  0  0  0  0  0
   74.2823   22.3499   53.1360 H   0  0  0  0  0  0  0  0  0  0  0  0
   73.8090   24.6761   53.8475 H   0  0  0  0  0  0  0  0  0  0  0  0
   71.7126   25.2121   55.0971 H   0  0  0  0  0  0  0  0  0  0  0  0
   68.4738   18.0497   53.9459 H   0  0  0  0  0  0  0  0  0  0  0  0
   71.0032   16.7804   57.1970 H   0  0  0  0  0  0  0  0  0  0  0  0
   70.1008   14.5422   57.0279 H   0  0  0  0  0  0  0  0  0  0  0  0
   67.5885   15.8116   53.7618 H   0  0  0  0  0  0  0  0  0  0  0  0
   69.0336   12.6861   56.9977 H   0  0  0  0  0  0  0  0  0  0  0  0
   68.1843   11.6287   55.9097 H   0  0  0  0  0  0  0  0  0  0  0  0
   66.4195   12.5748   55.0325 H   0  0  0  0  0  0  0  0  0  0  0  0
   66.3011   14.2391   54.5592 H   0  0  0  0  0  0  0  0  0  0  0  0
   66.3363   12.8099   52.5603 H   0  0  0  0  0  0  0  0  0  0  0  0
   67.8283   12.0163   53.0799 H   0  0  0  0  0  0  0  0  0  0  0  0
   67.8630   13.7100   52.5747 H   0  0  0  0  0  0  0  0  0  0  0  0
   70.5736   11.2044   55.7070 H   0  0  0  0  0  0  0  0  0  0  0  0
   70.9009   12.8860   55.2708 H   0  0  0  0  0  0  0  0  0  0  0  0
   69.9692   11.8592   54.1771 H   0  0  0  0  0  0  0  0  0  0  0  0
  1  2  2  0
  1  5  1  0
  1 24  1  0
  2  3  1  0
  2 25  1  0
  3  4  2  0
  3 26  1  0
  4  7  1  0
  4 27  1  0
  5  6  1  0
  5  7  2  0
  6  9  1  0
  6 10  1  0
  7  8  1  0
  8  9  2  0
 10 11  1  0
 11 12  2  0
 11 13  1  0
 13 14  2  0
 13 15  1  0
 14 18  1  0
 14 28  1  0
 15 16  2  0
 15 29  1  0
 16 17  1  0
 16 30  1  0
 17 18  2  0
 17 19  1  0
 18 31  1  0
 19 20  1  0
 19 21  1  0
 20 23  1  0
 20 32  1  0
 20 33  1  0
 21 22  1  0
 21 34  1  0
 21 35  1  0
 22 36  1  0
 22 37  1  0
 22 38  1  0
 23 39  1  0
 23 40  1  0
 23 41  1  0
A    1
-0.15541784
A    2
-0.08452803
A    3
-0.08952752
A    4
-0.14670476
A    5
0.03874582
A    6
0.19534509
A    7
0.119001694
A    8
-0.26520777
A    9
-0.08366159
A   10
-0.22228537
A   11
0.5563466
A   12
-0.41885844
A   13
-0.091023
A   14
-0.09200322
A   15
-0.089597106
A   16
-0.21413802
A   17
0.22184286
A   18
-0.2296139
A   19
-0.1762832
A   20
-0.009906097
A   21
-0.001803797
A   22
-0.36073118
A   23
-0.38198888
A   24
0.15434238
A   25
0.13739675
A   26
0.13632049
A   27
0.13739717
A   28
0.13794917
A   29
0.14199717
A   30
0.1404218
A   31
0.13945265
A   32
0.06584599
A   33
0.07968656
A   34
0.07085818
A   35
0.06480647
A   36
0.09323254
A   37
0.09728842
A   38
0.10080758
A   39
0.099429905
A   40
0.090535834
A   41
0.09422843
M  END
>  <Name>  (58) 
ligand_87

>  <charge>  (58) 
0

$$$$
ligand_48
     RDKit          3D

 43 45  0  0  0  0  0  0  0  0999 V2000
   70.9244   15.1862   56.2946 C   0  0  0  0  0  0  0  0  0  0  0  0
   68.7639   15.3396   57.3913 C   0  0  0  0  0  0  0  0  0  0  0  0
   69.4001   15.4981   58.6216 C   0  0  0  0  0  0  0  0  0  0  0  0
   70.7947   15.5007   58.6833 C   0  0  0  0  0  0  0  0  0  0  0  0
   71.5598   15.3401   57.5269 C   0  0  0  0  0  0  0  0  0  0  0  0
   71.5792   15.7070   60.1994 Cl  0  0  0  0  0  0  0  0  0  0  0  0
   69.5297   15.2082   56.2324 C   0  0  0  0  0  0  0  0  0  0  0  0
   68.8877   15.0097   55.0373 O   0  0  0  0  0  0  0  0  0  0  0  0
   68.7711   16.0750   54.1706 C   0  0  0  0  0  0  0  0  0  0  0  0
   68.3985   18.0802   52.2107 C   0  0  0  0  0  0  0  0  0  0  0  0
   68.8152   18.4066   53.5102 C   0  0  0  0  0  0  0  0  0  0  0  0
   68.9957   17.4153   54.4855 C   0  0  0  0  0  0  0  0  0  0  0  0
   68.3510   15.7448   52.8803 C   0  0  0  0  0  0  0  0  0  0  0  0
   68.1658   16.7384   51.9060 C   0  0  0  0  0  0  0  0  0  0  0  0
   68.2685   19.1458   51.2891 N   0  0  0  0  0  0  0  0  0  0  0  0
   67.8310   19.0861   49.9652 C   0  0  0  0  0  0  0  0  0  0  0  0
   67.3816   18.0858   49.4171 O   0  0  0  0  0  0  0  0  0  0  0  0
   68.0308   20.4303   49.2548 C   0  0  0  0  0  0  0  0  0  0  0  0
   67.4758   20.4529   47.5275 S   0  0  0  0  0  0  0  0  0  0  0  0
   65.9784   21.3206   47.6572 C   0  0  0  0  0  0  0  0  0  0  0  0
   63.6834   22.7445   47.6186 C   0  0  0  0  0  0  0  0  0  0  0  0
   64.1554   22.1520   48.7257 C   0  0  0  0  0  0  0  0  0  0  0  0
   65.5861   21.8691   46.4748 N   0  0  0  0  0  0  0  0  0  0  0  0
   65.3309   21.4362   48.7673 N   0  0  0  0  0  0  0  0  0  0  0  0
   64.4556   22.6217   46.3714 C   0  0  0  0  0  0  0  0  0  0  0  0
   64.0949   23.1675   45.3357 O   0  0  0  0  0  0  0  0  0  0  0  0
   63.4080   22.2313   50.0264 C   0  0  0  0  0  0  0  0  0  0  0  0
   71.5057   15.0560   55.3859 H   0  0  0  0  0  0  0  0  0  0  0  0
   67.6792   15.3308   57.3264 H   0  0  0  0  0  0  0  0  0  0  0  0
   68.8078   15.6121   59.5256 H   0  0  0  0  0  0  0  0  0  0  0  0
   72.6451   15.3280   57.5829 H   0  0  0  0  0  0  0  0  0  0  0  0
   68.9973   19.4429   53.7843 H   0  0  0  0  0  0  0  0  0  0  0  0
   69.3083   17.7122   55.4838 H   0  0  0  0  0  0  0  0  0  0  0  0
   68.1675   14.7009   52.6295 H   0  0  0  0  0  0  0  0  0  0  0  0
   67.8440   16.4253   50.9174 H   0  0  0  0  0  0  0  0  0  0  0  0
   68.5221   20.0595   51.6437 H   0  0  0  0  0  0  0  0  0  0  0  0
   69.1103   20.6217   49.2395 H   0  0  0  0  0  0  0  0  0  0  0  0
   67.5777   21.2327   49.8454 H   0  0  0  0  0  0  0  0  0  0  0  0
   62.7623   23.3094   47.5797 H   0  0  0  0  0  0  0  0  0  0  0  0
   66.1450   21.7370   45.6463 H   0  0  0  0  0  0  0  0  0  0  0  0
   64.0289   22.7087   50.7916 H   0  0  0  0  0  0  0  0  0  0  0  0
   63.1434   21.2266   50.3724 H   0  0  0  0  0  0  0  0  0  0  0  0
   62.4827   22.8099   49.9371 H   0  0  0  0  0  0  0  0  0  0  0  0
  1  5  2  0
  1  7  1  0
  1 28  1  0
  2  3  1  0
  2  7  2  0
  2 29  1  0
  3  4  2  0
  3 30  1  0
  4  5  1  0
  4  6  1  0
  5 31  1  0
  7  8  1  0
  8  9  1  0
  9 12  2  0
  9 13  1  0
 10 11  2  0
 10 14  1  0
 10 15  1  0
 11 12  1  0
 11 32  1  0
 12 33  1  0
 13 14  2  0
 13 34  1  0
 14 35  1  0
 15 16  1  0
 15 36  1  0
 16 17  2  0
 16 18  1  0
 18 19  1  0
 18 37  1  0
 18 38  1  0
 19 20  1  0
 20 23  1  0
 20 24  2  0
 21 22  2  0
 21 25  1  0
 21 39  1  0
 22 24  1  0
 22 27  1  0
 23 25  1  0
 23 40  1  0
 25 26  2  0
 27 41  1  0
 27 42  1  0
 27 43  1  0
A    1
-0.20010884
A    2
-0.20305137
A    3
-0.15267771
A    4
0.15370917
A    5
-0.1443152
A    6
-0.087869726
A    7
0.2904139
A    8
-0.27753782
A    9
0.27582362
A   10
0.27700594
A   11
-0.21689023
A   12
-0.21355584
A   13
-0.19062886
A   14
-0.20018427
A   15
-0.55177027
A   16
0.62122035
A   17
-0.52232206
A   18
-0.33874455
A   19
-0.04114384
A   20
0.36773524
A   21
-0.44158065
A   22
0.43665755
A   23
-0.45075175
A   24
-0.48362744
A   25
0.57426393
A   26
-0.54376495
A   27
-0.47241646
A   28
0.153181
A   29
0.14284222
A   30
0.15897779
A   31
0.13100705
A   32
0.14519127
A   33
0.14326166
A   34
0.14991885
A   35
0.14747842
A   36
0.32779187
A   37
0.16455978
A   38
0.13733019
A   39
0.17259069
A   40
0.35687637
A   41
0.13601798
A   42
0.13795745
A   43
0.13112953
M  END
>  <Name>  (59) 
ligand_48

>  <IC50 (nM)>  (59) 
200000

>  <charge>  (59) 
0

$$$$
ligand_91
     RDKit          3D

 31 34  0  0  0  0  0  0  0  0999 V2000
   72.1754   21.3664   53.4568 C   0  0  0  0  0  0  0  0  0  0  0  0
   73.2506   22.2420   53.2660 C   0  0  0  0  0  0  0  0  0  0  0  0
   73.3040   23.4799   53.9135 C   0  0  0  0  0  0  0  0  0  0  0  0
   72.2834   23.8840   54.7844 C   0  0  0  0  0  0  0  0  0  0  0  0
   71.1679   21.7987   54.3252 C   0  0  0  0  0  0  0  0  0  0  0  0
   69.9785   21.2711   54.7466 N   0  0  0  0  0  0  0  0  0  0  0  0
   71.2018   23.0179   54.9919 C   0  0  0  0  0  0  0  0  0  0  0  0
   70.0966   23.1413   55.7952 N   0  0  0  0  0  0  0  0  0  0  0  0
   69.3701   22.0365   55.6658 N   0  0  0  0  0  0  0  0  0  0  0  0
   69.5041   19.9894   54.5210 O   0  0  0  0  0  0  0  0  0  0  0  0
   68.7967   19.9380   53.3624 C   0  0  0  0  0  0  0  0  0  0  0  0
   68.6986   20.8416   52.5440 O   0  0  0  0  0  0  0  0  0  0  0  0
   68.1930   18.6318   53.2221 C   0  0  0  0  0  0  0  0  0  0  0  0
   67.4630   18.1444   52.1509 C   0  0  0  0  0  0  0  0  0  0  0  0
   67.0526   16.8178   52.4480 C   0  0  0  0  0  0  0  0  0  0  0  0
   67.5443   16.5133   53.7170 C   0  0  0  0  0  0  0  0  0  0  0  0
   68.2279   17.6228   54.1611 N   0  0  0  0  0  0  0  0  0  0  0  0
   66.3033   15.8483   51.7563 C   0  0  0  0  0  0  0  0  0  0  0  0
   66.0774   14.6155   52.3681 C   0  0  0  0  0  0  0  0  0  0  0  0
   66.5728   14.3279   53.6339 C   0  0  0  0  0  0  0  0  0  0  0  0
   67.3216   15.2770   54.3381 C   0  0  0  0  0  0  0  0  0  0  0  0
   65.3620   13.6841   51.7198 F   0  0  0  0  0  0  0  0  0  0  0  0
   72.1240   20.4128   52.9421 H   0  0  0  0  0  0  0  0  0  0  0  0
   74.0606   21.9601   52.5945 H   0  0  0  0  0  0  0  0  0  0  0  0
   74.1506   24.1405   53.7395 H   0  0  0  0  0  0  0  0  0  0  0  0
   72.3255   24.8414   55.2922 H   0  0  0  0  0  0  0  0  0  0  0  0
   67.2451   18.6974   51.2444 H   0  0  0  0  0  0  0  0  0  0  0  0
   68.6819   17.6918   55.0623 H   0  0  0  0  0  0  0  0  0  0  0  0
   65.9030   16.0470   50.7685 H   0  0  0  0  0  0  0  0  0  0  0  0
   66.3704   13.3556   54.0738 H   0  0  0  0  0  0  0  0  0  0  0  0
   67.7057   15.0531   55.3284 H   0  0  0  0  0  0  0  0  0  0  0  0
  1  2  2  0
  1  5  1  0
  1 23  1  0
  2  3  1  0
  2 24  1  0
  3  4  2  0
  3 25  1  0
  4  7  1  0
  4 26  1  0
  5  6  1  0
  5  7  2  0
  6  9  1  0
  6 10  1  0
  7  8  1  0
  8  9  2  0
 10 11  1  0
 11 12  2  0
 11 13  1  0
 13 14  2  0
 13 17  1  0
 14 15  1  0
 14 27  1  0
 15 16  2  0
 15 18  1  0
 16 17  1  0
 16 21  1  0
 17 28  1  0
 18 19  2  0
 18 29  1  0
 19 20  1  0
 19 22  1  0
 20 21  2  0
 20 30  1  0
 21 31  1  0
A    1
-0.16130173
A    2
-0.09048923
A    3
-0.09104372
A    4
-0.14992096
A    5
0.043662094
A    6
0.19869414
A    7
0.11570816
A    8
-0.23360226
A    9
-0.0657302
A   10
-0.2236185
A   11
0.5499386
A   12
-0.4627475
A   13
0.036761772
A   14
-0.32212043
A   15
0.058214013
A   16
0.17949392
A   17
-0.32785243
A   18
-0.28271443
A   19
0.3030675
A   20
-0.24455564
A   21
-0.17637011
A   22
-0.1589644
A   23
0.14390974
A   24
0.12984078
A   25
0.131836
A   26
0.14618641
A   27
0.16256565
A   28
0.34226555
A   29
0.15495817
A   30
0.15158121
A   31
0.14234786
M  END
>  <Name>  (60) 
ligand_91

>  <charge>  (60) 
0

$$$$
ligand_36
     RDKit          3D

 51 54  0  0  0  0  0  0  0  0999 V2000
   67.7487   21.3392   45.8160 C   0  0  0  0  0  0  0  0  0  0  0  0
   67.0961   21.3928   44.5782 C   0  0  0  0  0  0  0  0  0  0  0  0
   67.8313   21.5703   43.4088 C   0  0  0  0  0  0  0  0  0  0  0  0
   69.2152   21.6956   43.4805 C   0  0  0  0  0  0  0  0  0  0  0  0
   69.8671   21.6408   44.7190 C   0  0  0  0  0  0  0  0  0  0  0  0
   69.1484   21.4579   45.9072 C   0  0  0  0  0  0  0  0  0  0  0  0
   66.7690   21.1281   47.2265 Cl  0  0  0  0  0  0  0  0  0  0  0  0
   69.7672   21.4080   47.1851 N   0  0  0  0  0  0  0  0  0  0  0  0
   71.1233   21.4467   47.4669 C   0  0  0  0  0  0  0  0  0  0  0  0
   72.0284   21.4259   46.6346 O   0  0  0  0  0  0  0  0  0  0  0  0
   71.4497   21.5728   48.9398 C   0  0  0  0  0  0  0  0  0  0  0  0
   71.3355   19.9544   49.7379 S   0  0  0  0  0  0  0  0  0  0  0  0
   69.8792   20.2377   50.6914 C   0  0  0  0  0  0  0  0  0  0  0  0
   67.7068   20.9218   50.8548 C   0  0  0  0  0  0  0  0  0  0  0  0
   68.8199   20.0597   52.7038 C   0  0  0  0  0  0  0  0  0  0  0  0
   67.6526   20.5699   52.1821 C   0  0  0  0  0  0  0  0  0  0  0  0
   68.8043   20.7657   50.0860 N   0  0  0  0  0  0  0  0  0  0  0  0
   69.9387   19.8915   51.9760 N   0  0  0  0  0  0  0  0  0  0  0  0
   68.9273   19.5780   54.0753 C   0  0  0  0  0  0  0  0  0  0  0  0
   68.6611   20.3629   55.1853 C   0  0  0  0  0  0  0  0  0  0  0  0
   69.4415   18.2698   54.4418 C   0  0  0  0  0  0  0  0  0  0  0  0
   69.4747   18.1172   55.8177 C   0  0  0  0  0  0  0  0  0  0  0  0
   68.9171   19.5046   56.6408 S   0  0  0  0  0  0  0  0  0  0  0  0
   68.1396   22.0490   55.2504 S   0  0  0  0  0  0  0  0  0  0  0  0
   69.6945   22.8652   54.8087 C   0  0  0  0  0  0  0  0  0  0  0  0
   69.9090   17.2540   53.4366 C   0  0  0  0  0  0  0  0  0  0  0  0
   69.9239   16.9792   56.5626 C   0  0  0  0  0  0  0  0  0  0  0  0
   71.2038   15.7605   57.8973 C   0  0  0  0  0  0  0  0  0  0  0  0
   70.2706   14.8044   57.5478 C   0  0  0  0  0  0  0  0  0  0  0  0
   69.0778   15.4837   56.5266 S   0  0  0  0  0  0  0  0  0  0  0  0
   70.9884   17.0084   57.3377 N   0  0  0  0  0  0  0  0  0  0  0  0
   72.3828   15.5779   58.7784 C   0  0  0  0  0  0  0  0  0  0  0  0
   66.0146   21.2972   44.5218 H   0  0  0  0  0  0  0  0  0  0  0  0
   67.3300   21.6129   42.4439 H   0  0  0  0  0  0  0  0  0  0  0  0
   69.7961   21.8378   42.5700 H   0  0  0  0  0  0  0  0  0  0  0  0
   70.9469   21.7492   44.7174 H   0  0  0  0  0  0  0  0  0  0  0  0
   69.1452   21.2668   47.9865 H   0  0  0  0  0  0  0  0  0  0  0  0
   72.4827   21.9258   49.0307 H   0  0  0  0  0  0  0  0  0  0  0  0
   70.8139   22.3338   49.4040 H   0  0  0  0  0  0  0  0  0  0  0  0
   66.8387   21.3426   50.3528 H   0  0  0  0  0  0  0  0  0  0  0  0
   66.7483   20.6791   52.7665 H   0  0  0  0  0  0  0  0  0  0  0  0
   69.5589   23.9485   54.8669 H   0  0  0  0  0  0  0  0  0  0  0  0
   69.9943   22.6098   53.7892 H   0  0  0  0  0  0  0  0  0  0  0  0
   70.4894   22.5773   55.5023 H   0  0  0  0  0  0  0  0  0  0  0  0
   70.0416   16.2595   53.8672 H   0  0  0  0  0  0  0  0  0  0  0  0
   70.8743   17.5572   53.0182 H   0  0  0  0  0  0  0  0  0  0  0  0
   69.1850   17.1564   52.6209 H   0  0  0  0  0  0  0  0  0  0  0  0
   70.2262   13.7674   57.8435 H   0  0  0  0  0  0  0  0  0  0  0  0
   72.4417   14.5541   59.1611 H   0  0  0  0  0  0  0  0  0  0  0  0
   72.3258   16.2591   59.6331 H   0  0  0  0  0  0  0  0  0  0  0  0
   73.3040   15.7901   58.2271 H   0  0  0  0  0  0  0  0  0  0  0  0
  1  2  2  0
  1  6  1  0
  1  7  1  0
  2  3  1  0
  2 33  1  0
  3  4  2  0
  3 34  1  0
  4  5  1  0
  4 35  1  0
  5  6  2  0
  5 36  1  0
  6  8  1  0
  8  9  1  0
  8 37  1  0
  9 10  2  0
  9 11  1  0
 11 12  1  0
 11 38  1  0
 11 39  1  0
 12 13  1  0
 13 17  2  0
 13 18  1  0
 14 16  2  0
 14 17  1  0
 14 40  1  0
 15 16  1  0
 15 18  2  0
 15 19  1  0
 16 41  1  0
 19 20  2  0
 19 21  1  0
 20 23  1  0
 20 24  1  0
 21 22  2  0
 21 26  1  0
 22 23  1  0
 22 27  1  0
 24 25  1  0
 25 42  1  0
 25 43  1  0
 25 44  1  0
 26 45  1  0
 26 46  1  0
 26 47  1  0
 27 30  1  0
 27 31  2  0
 28 29  2  0
 28 31  1  0
 28 32  1  0
 29 30  1  0
 29 48  1  0
 32 49  1  0
 32 50  1  0
 32 51  1  0
A    1
0.045288984
A    2
-0.14532635
A    3
-0.10015297
A    4
-0.09499879
A    5
-0.18505234
A    6
0.2007487
A    7
-0.07163266
A    8
-0.5330887
A    9
0.5950183
A   10
-0.52056795
A   11
-0.33018613
A   12
-0.053912118
A   13
0.38207507
A   14
0.11710377
A   15
0.28100067
A   16
-0.24873057
A   17
-0.39964053
A   18
-0.46538156
A   19
-0.07555925
A   20
-0.040642392
A   21
0.08424268
A   22
-0.112064674
A   23
0.084721014
A   24
0.01085381
A   25
-0.39079136
A   26
-0.37690663
A   27
0.17947306
A   28
0.33447877
A   29
-0.28457013
A   30
0.080607206
A   31
-0.40382215
A   32
-0.42456537
A   33
0.15797283
A   34
0.13804422
A   35
0.13520299
A   36
0.14970337
A   37
0.32984963
A   38
0.16162163
A   39
0.1405137
A   40
0.115675084
A   41
0.15880476
A   42
0.14033431
A   43
0.13612512
A   44
0.13717933
A   45
0.1164204
A   46
0.1392341
A   47
0.13167475
A   48
0.18289572
A   49
0.12333469
A   50
0.13493507
A   51
0.13245891
M  END
>  <Name>  (61) 
ligand_36

>  <IC50 (nM)>  (61) 
12000

>  <charge>  (61) 
0

$$$$
ligand_37
     RDKit          3D

 43 46  0  0  0  0  0  0  0  0999 V2000
   69.0731   16.9209   55.8826 C   0  0  0  0  0  0  0  0  0  0  0  0
   68.3072   15.7997   55.5314 C   0  0  0  0  0  0  0  0  0  0  0  0
   68.7823   14.5055   55.7699 C   0  0  0  0  0  0  0  0  0  0  0  0
   70.0378   14.3268   56.3430 C   0  0  0  0  0  0  0  0  0  0  0  0
   70.8166   15.4306   56.6747 C   0  0  0  0  0  0  0  0  0  0  0  0
   70.3304   16.7243   56.4568 C   0  0  0  0  0  0  0  0  0  0  0  0
   70.6242   12.7388   56.6508 Cl  0  0  0  0  0  0  0  0  0  0  0  0
   68.5134   18.1887   55.6306 N   0  0  0  0  0  0  0  0  0  0  0  0
   69.0460   19.4287   55.9423 C   0  0  0  0  0  0  0  0  0  0  0  0
   70.1050   19.6264   56.5360 O   0  0  0  0  0  0  0  0  0  0  0  0
   68.1499   20.5905   55.5391 C   0  0  0  0  0  0  0  0  0  0  0  0
   68.9029   21.5547   54.2047 S   0  0  0  0  0  0  0  0  0  0  0  0
   68.5979   20.5066   52.8103 C   0  0  0  0  0  0  0  0  0  0  0  0
   68.0321   19.1063   50.5722 C   0  0  0  0  0  0  0  0  0  0  0  0
   68.8812   20.1905   50.5596 C   0  0  0  0  0  0  0  0  0  0  0  0
   67.5042   18.7777   51.7972 C   0  0  0  0  0  0  0  0  0  0  0  0
   67.7624   19.4589   52.9315 N   0  0  0  0  0  0  0  0  0  0  0  0
   69.1805   20.8950   51.6689 N   0  0  0  0  0  0  0  0  0  0  0  0
   69.4733   20.6604   49.3119 C   0  0  0  0  0  0  0  0  0  0  0  0
   70.5429   21.5332   49.2625 C   0  0  0  0  0  0  0  0  0  0  0  0
   69.6377   20.8869   47.1050 C   0  0  0  0  0  0  0  0  0  0  0  0
   68.9787   20.2770   48.0735 N   0  0  0  0  0  0  0  0  0  0  0  0
   70.9316   21.8944   47.6354 S   0  0  0  0  0  0  0  0  0  0  0  0
   69.2626   20.7133   45.6635 C   0  0  0  0  0  0  0  0  0  0  0  0
   70.0248   21.1561   44.5985 C   0  0  0  0  0  0  0  0  0  0  0  0
   67.9587   20.0596   43.9858 C   0  0  0  0  0  0  0  0  0  0  0  0
   68.0766   20.0862   45.2943 N   0  0  0  0  0  0  0  0  0  0  0  0
   69.2496   20.7775   43.1126 S   0  0  0  0  0  0  0  0  0  0  0  0
   66.8063   19.4595   43.2635 C   0  0  0  0  0  0  0  0  0  0  0  0
   67.3279   15.9185   55.0740 H   0  0  0  0  0  0  0  0  0  0  0  0
   68.1687   13.6444   55.5165 H   0  0  0  0  0  0  0  0  0  0  0  0
   71.8025   15.3020   57.1112 H   0  0  0  0  0  0  0  0  0  0  0  0
   70.9671   17.5539   56.7489 H   0  0  0  0  0  0  0  0  0  0  0  0
   67.6331   18.1936   55.1277 H   0  0  0  0  0  0  0  0  0  0  0  0
   67.1369   20.2670   55.2824 H   0  0  0  0  0  0  0  0  0  0  0  0
   68.0530   21.2400   56.4161 H   0  0  0  0  0  0  0  0  0  0  0  0
   67.7901   18.5519   49.6742 H   0  0  0  0  0  0  0  0  0  0  0  0
   66.8258   17.9353   51.9001 H   0  0  0  0  0  0  0  0  0  0  0  0
   71.0936   21.9680   50.0859 H   0  0  0  0  0  0  0  0  0  0  0  0
   70.9756   21.6699   44.5892 H   0  0  0  0  0  0  0  0  0  0  0  0
   66.0816   19.0471   43.9730 H   0  0  0  0  0  0  0  0  0  0  0  0
   67.1371   18.6462   42.6099 H   0  0  0  0  0  0  0  0  0  0  0  0
   66.2925   20.2117   42.6565 H   0  0  0  0  0  0  0  0  0  0  0  0
  1  2  2  0
  1  6  1  0
  1  8  1  0
  2  3  1  0
  2 30  1  0
  3  4  2  0
  3 31  1  0
  4  5  1  0
  4  7  1  0
  5  6  2  0
  5 32  1  0
  6 33  1  0
  8  9  1  0
  8 34  1  0
  9 10  2  0
  9 11  1  0
 11 12  1  0
 11 35  1  0
 11 36  1  0
 12 13  1  0
 13 17  1  0
 13 18  2  0
 14 15  2  0
 14 16  1  0
 14 37  1  0
 15 18  1  0
 15 19  1  0
 16 17  2  0
 16 38  1  0
 19 20  2  0
 19 22  1  0
 20 23  1  0
 20 39  1  0
 21 22  2  0
 21 23  1  0
 21 24  1  0
 24 25  2  0
 24 27  1  0
 25 28  1  0
 25 40  1  0
 26 27  2  0
 26 28  1  0
 26 29  1  0
 29 41  1  0
 29 42  1  0
 29 43  1  0
A    1
0.32526615
A    2
-0.17478491
A    3
-0.16249615
A    4
0.14794828
A    5
-0.13644576
A    6
-0.19454978
A    7
-0.08861561
A    8
-0.53064656
A    9
0.6585432
A   10
-0.5111289
A   11
-0.29685223
A   12
-0.04058881
A   13
0.35426477
A   14
-0.26363418
A   15
0.23661876
A   16
0.089479655
A   17
-0.38008386
A   18
-0.4660806
A   19
0.16450381
A   20
-0.26210874
A   21
0.1329841
A   22
-0.35374132
A   23
0.089097
A   24
0.16681108
A   25
-0.24757306
A   26
0.3002648
A   27
-0.43555707
A   28
0.037806235
A   29
-0.43682212
A   30
0.15004939
A   31
0.15593399
A   32
0.14963053
A   33
0.13503267
A   34
0.31646338
A   35
0.15580063
A   36
0.15143982
A   37
0.15787023
A   38
0.12509461
A   39
0.17562589
A   40
0.17741752
A   41
0.14792377
A   42
0.13970682
A   43
0.14013265
M  END
>  <Name>  (62) 
ligand_37

>  <IC50 (nM)>  (62) 
14000

>  <charge>  (62) 
0

$$$$
ligand_89
     RDKit          3D

 31 34  0  0  0  0  0  0  0  0999 V2000
   67.4146   17.3511   52.3667 C   0  0  0  0  0  0  0  0  0  0  0  0
   66.4878   16.4977   51.7575 C   0  0  0  0  0  0  0  0  0  0  0  0
   66.2834   15.1932   52.2201 C   0  0  0  0  0  0  0  0  0  0  0  0
   67.0071   14.6927   53.3112 C   0  0  0  0  0  0  0  0  0  0  0  0
   68.1179   16.8276   53.4556 C   0  0  0  0  0  0  0  0  0  0  0  0
   69.0656   17.3265   54.3062 N   0  0  0  0  0  0  0  0  0  0  0  0
   67.9433   15.5325   53.9308 C   0  0  0  0  0  0  0  0  0  0  0  0
   68.7957   15.3065   54.9826 N   0  0  0  0  0  0  0  0  0  0  0  0
   69.5117   16.4084   55.1776 N   0  0  0  0  0  0  0  0  0  0  0  0
   69.7407   18.5313   54.1905 O   0  0  0  0  0  0  0  0  0  0  0  0
   69.0833   19.5196   54.8380 C   0  0  0  0  0  0  0  0  0  0  0  0
   67.9730   19.4470   55.3415 O   0  0  0  0  0  0  0  0  0  0  0  0
   69.8946   20.7695   54.8434 C   0  0  0  0  0  0  0  0  0  0  0  0
   71.1979   20.8210   54.3161 C   0  0  0  0  0  0  0  0  0  0  0  0
   69.3201   21.9154   55.4103 C   0  0  0  0  0  0  0  0  0  0  0  0
   70.0155   23.1276   55.4674 C   0  0  0  0  0  0  0  0  0  0  0  0
   71.3089   23.1519   54.9371 C   0  0  0  0  0  0  0  0  0  0  0  0
   71.9151   22.0343   54.3651 C   0  0  0  0  0  0  0  0  0  0  0  0
   72.2155   24.1868   54.8652 N   0  0  0  0  0  0  0  0  0  0  0  0
   73.3723   23.7638   54.2672 C   0  0  0  0  0  0  0  0  0  0  0  0
   73.2150   22.4339   53.9459 C   0  0  0  0  0  0  0  0  0  0  0  0
   67.5661   18.3671   52.0183 H   0  0  0  0  0  0  0  0  0  0  0  0
   65.9092   16.8565   50.9077 H   0  0  0  0  0  0  0  0  0  0  0  0
   65.5533   14.5561   51.7258 H   0  0  0  0  0  0  0  0  0  0  0  0
   66.8563   13.6799   53.6685 H   0  0  0  0  0  0  0  0  0  0  0  0
   71.6719   19.9473   53.8795 H   0  0  0  0  0  0  0  0  0  0  0  0
   68.3126   21.8725   55.8237 H   0  0  0  0  0  0  0  0  0  0  0  0
   69.5669   24.0105   55.9138 H   0  0  0  0  0  0  0  0  0  0  0  0
   72.0463   25.1204   55.2127 H   0  0  0  0  0  0  0  0  0  0  0  0
   74.2048   24.4398   54.1252 H   0  0  0  0  0  0  0  0  0  0  0  0
   73.9617   21.8154   53.4648 H   0  0  0  0  0  0  0  0  0  0  0  0
  1  2  2  0
  1  5  1  0
  1 22  1  0
  2  3  1  0
  2 23  1  0
  3  4  2  0
  3 24  1  0
  4  7  1  0
  4 25  1  0
  5  6  1  0
  5  7  2  0
  6  9  1  0
  6 10  1  0
  7  8  1  0
  8  9  2  0
 10 11  1  0
 11 12  2  0
 11 13  1  0
 13 14  2  0
 13 15  1  0
 14 18  1  0
 14 26  1  0
 15 16  2  0
 15 27  1  0
 16 17  1  0
 16 28  1  0
 17 18  2  0
 17 19  1  0
 18 21  1  0
 19 20  1  0
 19 29  1  0
 20 21  2  0
 20 30  1  0
 21 31  1  0
A    1
-0.1724676
A    2
-0.099399686
A    3
-0.10628971
A    4
-0.15457961
A    5
0.03387287
A    6
0.21426675
A    7
0.12141024
A    8
-0.2466767
A    9
-0.105626754
A   10
-0.21760923
A   11
0.54838955
A   12
-0.52477366
A   13
-0.07016831
A   14
-0.1479588
A   15
-0.10336468
A   16
-0.20987453
A   17
0.1697649
A   18
0.026229491
A   19
-0.3037551
A   20
0.03845655
A   21
-0.24447751
A   22
0.14344168
A   23
0.12449199
A   24
0.11863318
A   25
0.14784718
A   26
0.13601808
A   27
0.13461943
A   28
0.13103512
A   29
0.33146125
A   30
0.13070983
A   31
0.15637377
M  END
>  <Name>  (63) 
ligand_89

>  <charge>  (63) 
0

$$$$
ligand_71
     RDKit          3D

 29 30  0  0  0  0  0  0  0  0999 V2000
   72.6265   22.6673   54.0029 C   0  0  0  0  0  0  0  0  0  0  0  0
   70.3211   22.4765   54.7107 C   0  0  0  0  0  0  0  0  0  0  0  0
   71.3182   23.1736   54.0249 C   0  0  0  0  0  0  0  0  0  0  0  0
   72.9429   21.4677   54.6580 C   0  0  0  0  0  0  0  0  0  0  0  0
   71.9437   20.7726   55.3430 C   0  0  0  0  0  0  0  0  0  0  0  0
   70.6381   21.2770   55.3584 C   0  0  0  0  0  0  0  0  0  0  0  0
   69.3763   20.4122   56.2696 S   0  0  0  0  0  0  0  0  0  0  0  0
   70.0409   19.6455   57.3067 O   0  0  0  0  0  0  0  0  0  0  0  0
   68.3474   21.3769   56.6097 O   0  0  0  0  0  0  0  0  0  0  0  0
   68.6583   19.2521   55.1254 C   0  0  0  0  0  0  0  0  0  0  0  0
   69.1618   17.9479   55.0582 C   0  0  0  0  0  0  0  0  0  0  0  0
   67.5664   19.6444   54.3425 C   0  0  0  0  0  0  0  0  0  0  0  0
   66.9793   18.7261   53.4690 C   0  0  0  0  0  0  0  0  0  0  0  0
   67.4859   17.4199   53.3952 C   0  0  0  0  0  0  0  0  0  0  0  0
   68.5768   17.0277   54.1855 C   0  0  0  0  0  0  0  0  0  0  0  0
   73.6835   23.4217   53.3219 N   0  0  0  0  0  0  0  0  0  0  0  0
   73.3752   24.4906   52.7718 O   0  0  0  0  0  0  0  0  0  0  0  0
   74.8412   22.9771   53.3700 O   0  0  0  0  0  0  0  0  0  0  0  0
   66.8424   16.4420   52.5122 N   0  0  0  0  0  0  0  0  0  0  0  0
   67.3024   15.2897   52.4848 O   0  0  0  0  0  0  0  0  0  0  0  0
   65.8422   16.8030   51.8724 O   0  0  0  0  0  0  0  0  0  0  0  0
   69.3114   22.8827   54.7473 H   0  0  0  0  0  0  0  0  0  0  0  0
   71.0671   24.1116   53.5320 H   0  0  0  0  0  0  0  0  0  0  0  0
   73.9587   21.0754   54.6585 H   0  0  0  0  0  0  0  0  0  0  0  0
   72.1951   19.8543   55.8713 H   0  0  0  0  0  0  0  0  0  0  0  0
   69.9933   17.6355   55.6882 H   0  0  0  0  0  0  0  0  0  0  0  0
   67.1576   20.6509   54.4166 H   0  0  0  0  0  0  0  0  0  0  0  0
   66.1237   19.0347   52.8702 H   0  0  0  0  0  0  0  0  0  0  0  0
   68.9667   16.0116   54.1457 H   0  0  0  0  0  0  0  0  0  0  0  0
  1  3  2  0
  1  4  1  0
  1 16  1  0
  2  3  1  0
  2  6  2  0
  2 22  1  0
  3 23  1  0
  4  5  2  0
  4 24  1  0
  5  6  1  0
  5 25  1  0
  6  7  1  0
  7  8  2  0
  7  9  2  0
  7 10  1  0
 10 11  2  0
 10 12  1  0
 11 15  1  0
 11 26  1  0
 12 13  2  0
 12 27  1  0
 13 14  1  0
 13 28  1  0
 14 15  2  0
 14 19  1  0
 15 29  1  0
 16 17  2  0
 16 18  1  0
 19 20  2  0
 19 21  1  0
M  CHG  4  16   1  18  -1  19   1  21  -1
A    1
0.049244914
A    2
-0.09673813
A    3
-0.14410707
A    4
-0.13571475
A    5
-0.10214918
A    6
-0.092651516
A    7
1.071268
A    8
-0.4876858
A    9
-0.5219352
A   10
-0.09839236
A   11
-0.09263454
A   12
-0.088271
A   13
-0.1265328
A   14
0.046715435
A   15
-0.12425326
A   16
0.55582076
A   17
-0.370789
A   18
-0.36574477
A   19
0.59077203
A   20
-0.36207652
A   21
-0.35348177
A   22
0.1511405
A   23
0.15305266
A   24
0.15282704
A   25
0.1447211
A   26
0.16604413
A   27
0.16320321
A   28
0.15633713
A   29
0.16201082
M  END
>  <Name>  (64) 
ligand_71

>  <IC50 (nM)>  (64) 
25000

>  <charge>  (64) 
0

$$$$
ligand_85
     RDKit          3D

 35 37  0  0  0  0  0  0  0  0999 V2000
   72.0012   21.3516   53.8604 C   0  0  0  0  0  0  0  0  0  0  0  0
   72.6960   22.5104   53.4895 C   0  0  0  0  0  0  0  0  0  0  0  0
   72.3533   23.7696   53.9987 C   0  0  0  0  0  0  0  0  0  0  0  0
   71.2922   23.9108   54.9043 C   0  0  0  0  0  0  0  0  0  0  0  0
   70.9526   21.5189   54.7680 C   0  0  0  0  0  0  0  0  0  0  0  0
   70.0655   20.6640   55.3690 N   0  0  0  0  0  0  0  0  0  0  0  0
   70.5843   22.7579   55.2870 C   0  0  0  0  0  0  0  0  0  0  0  0
   69.5075   22.5991   56.1246 N   0  0  0  0  0  0  0  0  0  0  0  0
   69.1723   21.3134   56.1335 N   0  0  0  0  0  0  0  0  0  0  0  0
   69.8348   19.3274   55.0574 O   0  0  0  0  0  0  0  0  0  0  0  0
   70.5708   18.5065   55.8428 C   0  0  0  0  0  0  0  0  0  0  0  0
   71.4862   18.8402   56.5797 O   0  0  0  0  0  0  0  0  0  0  0  0
   70.1330   17.0857   55.6907 C   0  0  0  0  0  0  0  0  0  0  0  0
   69.0339   16.6988   54.9226 C   0  0  0  0  0  0  0  0  0  0  0  0
   70.8435   16.0945   56.3713 C   0  0  0  0  0  0  0  0  0  0  0  0
   70.4580   14.7447   56.2845 C   0  0  0  0  0  0  0  0  0  0  0  0
   69.3528   14.3216   55.5253 C   0  0  0  0  0  0  0  0  0  0  0  0
   68.6595   15.3420   54.8468 C   0  0  0  0  0  0  0  0  0  0  0  0
   68.9704   12.9842   55.4522 N   0  0  0  0  0  0  0  0  0  0  0  0
   69.6822   11.9561   56.2010 C   0  0  0  0  0  0  0  0  0  0  0  0
   67.8041   12.5753   54.6798 C   0  0  0  0  0  0  0  0  0  0  0  0
   72.2759   20.3764   53.4723 H   0  0  0  0  0  0  0  0  0  0  0  0
   73.5260   22.4225   52.7907 H   0  0  0  0  0  0  0  0  0  0  0  0
   72.9153   24.6494   53.6898 H   0  0  0  0  0  0  0  0  0  0  0  0
   71.0178   24.8843   55.2986 H   0  0  0  0  0  0  0  0  0  0  0  0
   68.4396   17.4297   54.3801 H   0  0  0  0  0  0  0  0  0  0  0  0
   71.7032   16.3575   56.9857 H   0  0  0  0  0  0  0  0  0  0  0  0
   71.0534   14.0263   56.8427 H   0  0  0  0  0  0  0  0  0  0  0  0
   67.7903   15.1041   54.2383 H   0  0  0  0  0  0  0  0  0  0  0  0
   69.6278   12.1500   57.2779 H   0  0  0  0  0  0  0  0  0  0  0  0
   70.7322   11.9053   55.8927 H   0  0  0  0  0  0  0  0  0  0  0  0
   69.2572   10.9602   56.0351 H   0  0  0  0  0  0  0  0  0  0  0  0
   67.9213   12.8429   53.6239 H   0  0  0  0  0  0  0  0  0  0  0  0
   66.8938   13.0402   55.0741 H   0  0  0  0  0  0  0  0  0  0  0  0
   67.6495   11.4914   54.7140 H   0  0  0  0  0  0  0  0  0  0  0  0
  1  2  2  0
  1  5  1  0
  1 22  1  0
  2  3  1  0
  2 23  1  0
  3  4  2  0
  3 24  1  0
  4  7  1  0
  4 25  1  0
  5  6  1  0
  5  7  2  0
  6  9  1  0
  6 10  1  0
  7  8  1  0
  8  9  2  0
 10 11  1  0
 11 12  2  0
 11 13  1  0
 13 14  2  0
 13 15  1  0
 14 18  1  0
 14 26  1  0
 15 16  2  0
 15 27  1  0
 16 17  1  0
 16 28  1  0
 17 18  2  0
 17 19  1  0
 18 29  1  0
 19 20  1  0
 19 21  1  0
 20 30  1  0
 20 31  1  0
 20 32  1  0
 21 33  1  0
 21 34  1  0
 21 35  1  0
A    1
-0.1725053
A    2
-0.07980846
A    3
-0.10258157
A    4
-0.14402501
A    5
0.03499847
A    6
0.19527207
A    7
0.123398796
A    8
-0.24588428
A    9
-0.09830218
A   10
-0.21329221
A   11
0.5775075
A   12
-0.4724759
A   13
-0.06808972
A   14
-0.10109089
A   15
-0.09781388
A   16
-0.20380512
A   17
0.19562559
A   18
-0.20874786
A   19
-0.09279976
A   20
-0.29999828
A   21
-0.3016569
A   22
0.15061061
A   23
0.13741525
A   24
0.1348782
A   25
0.14253993
A   26
0.14226128
A   27
0.1305887
A   28
0.1459668
A   29
0.13783176
A   30
0.1165126
A   31
0.11254249
A   32
0.10799959
A   33
0.104548216
A   34
0.10672288
A   35
0.10565662
M  END
>  <Name>  (65) 
ligand_85

>  <charge>  (65) 
0

$$$$
ligand_128
     RDKit          3D

 53 57  0  0  0  0  0  0  0  0999 V2000
   72.5337   12.9481   57.3844 C   0  0  0  0  0  0  0  0  0  0  0  0
   72.8923   11.7941   56.5038 C   0  0  0  0  0  0  0  0  0  0  0  0
   73.9257   11.1554   57.2189 N   0  0  0  0  0  0  0  0  0  0  0  0
   74.2615   11.7925   58.4234 N   0  0  0  0  0  0  0  0  0  0  0  0
   73.4964   12.8453   58.5119 C   0  0  0  0  0  0  0  0  0  0  0  0
   72.3590   11.5424   55.4402 O   0  0  0  0  0  0  0  0  0  0  0  0
   74.6822   10.0018   56.8541 C   0  0  0  0  0  0  0  0  0  0  0  0
   75.6745    9.5354   57.7378 C   0  0  0  0  0  0  0  0  0  0  0  0
   76.4607    8.4233   57.4364 C   0  0  0  0  0  0  0  0  0  0  0  0
   76.2719    7.7505   56.2356 C   0  0  0  0  0  0  0  0  0  0  0  0
   75.2969    8.1710   55.3174 C   0  0  0  0  0  0  0  0  0  0  0  0
   74.5041    9.3023   55.6450 C   0  0  0  0  0  0  0  0  0  0  0  0
   73.6264   13.8246   59.6039 C   0  0  0  0  0  0  0  0  0  0  0  0
   73.9331   15.1604   59.3165 C   0  0  0  0  0  0  0  0  0  0  0  0
   74.1263   16.0702   60.3578 C   0  0  0  0  0  0  0  0  0  0  0  0
   74.0288   15.6430   61.6829 C   0  0  0  0  0  0  0  0  0  0  0  0
   73.7320   14.3117   61.9756 C   0  0  0  0  0  0  0  0  0  0  0  0
   73.5412   13.3969   60.9347 C   0  0  0  0  0  0  0  0  0  0  0  0
   75.1281    7.4040   54.0077 C   0  0  0  0  0  0  0  0  0  0  0  0
   75.8881    6.3966   53.8094 O   0  0  0  0  0  0  0  0  0  0  0  0
   74.2388    7.8194   53.1984 O   0  0  0  0  0  0  0  0  0  0  0  0
   71.5792   13.8916   57.2934 C   0  0  0  0  0  0  0  0  0  0  0  0
   70.5336   14.1856   56.2891 C   0  0  0  0  0  0  0  0  0  0  0  0
   70.2170   15.5358   56.0635 C   0  0  0  0  0  0  0  0  0  0  0  0
   69.1553   15.9095   55.2253 C   0  0  0  0  0  0  0  0  0  0  0  0
   68.3496   14.9538   54.5899 C   0  0  0  0  0  0  0  0  0  0  0  0
   68.6749   13.6045   54.8121 C   0  0  0  0  0  0  0  0  0  0  0  0
   69.7473   13.2247   55.6506 C   0  0  0  0  0  0  0  0  0  0  0  0
   67.2003   15.3694   53.7479 C   0  0  0  0  0  0  0  0  0  0  0  0
   65.9141   14.8291   53.9397 C   0  0  0  0  0  0  0  0  0  0  0  0
   64.8234   15.2480   53.1673 C   0  0  0  0  0  0  0  0  0  0  0  0
   64.9998   16.2187   52.1851 C   0  0  0  0  0  0  0  0  0  0  0  0
   66.2593   16.7702   51.9695 C   0  0  0  0  0  0  0  0  0  0  0  0
   67.3462   16.3480   52.7439 C   0  0  0  0  0  0  0  0  0  0  0  0
   75.8560   10.0368   58.6845 H   0  0  0  0  0  0  0  0  0  0  0  0
   77.2200    8.0843   58.1331 H   0  0  0  0  0  0  0  0  0  0  0  0
   76.8867    6.8838   55.9957 H   0  0  0  0  0  0  0  0  0  0  0  0
   73.7542    9.6157   54.9195 H   0  0  0  0  0  0  0  0  0  0  0  0
   74.0527   15.4835   58.2846 H   0  0  0  0  0  0  0  0  0  0  0  0
   74.3626   17.1086   60.1358 H   0  0  0  0  0  0  0  0  0  0  0  0
   74.1976   16.3475   62.4945 H   0  0  0  0  0  0  0  0  0  0  0  0
   73.6665   13.9903   63.0138 H   0  0  0  0  0  0  0  0  0  0  0  0
   73.3363   12.3523   61.1587 H   0  0  0  0  0  0  0  0  0  0  0  0
   71.5226   14.6081   58.1103 H   0  0  0  0  0  0  0  0  0  0  0  0
   70.7938   16.3228   56.5444 H   0  0  0  0  0  0  0  0  0  0  0  0
   68.9483   16.9687   55.0939 H   0  0  0  0  0  0  0  0  0  0  0  0
   68.0966   12.8201   54.3236 H   0  0  0  0  0  0  0  0  0  0  0  0
   69.9393   12.1633   55.7965 H   0  0  0  0  0  0  0  0  0  0  0  0
   65.7567   14.0737   54.7075 H   0  0  0  0  0  0  0  0  0  0  0  0
   63.8354   14.8220   53.3318 H   0  0  0  0  0  0  0  0  0  0  0  0
   64.1528   16.5455   51.5849 H   0  0  0  0  0  0  0  0  0  0  0  0
   66.3913   17.5252   51.1967 H   0  0  0  0  0  0  0  0  0  0  0  0
   68.3317   16.7690   52.5498 H   0  0  0  0  0  0  0  0  0  0  0  0
  1  2  1  0
  1  5  1  0
  1 22  2  0
  2  3  1  0
  2  6  2  0
  3  4  1  0
  3  7  1  0
  4  5  2  0
  5 13  1  0
  7  8  2  0
  7 12  1  0
  8  9  1  0
  8 35  1  0
  9 10  2  0
  9 36  1  0
 10 11  1  0
 10 37  1  0
 11 12  2  0
 11 19  1  0
 12 38  1  0
 13 14  2  0
 13 18  1  0
 14 15  1  0
 14 39  1  0
 15 16  2  0
 15 40  1  0
 16 17  1  0
 16 41  1  0
 17 18  2  0
 17 42  1  0
 18 43  1  0
 19 20  1  0
 19 21  2  0
 22 23  1  0
 22 44  1  0
 23 24  2  0
 23 28  1  0
 24 25  1  0
 24 45  1  0
 25 26  2  0
 25 46  1  0
 26 27  1  0
 26 29  1  0
 27 28  2  0
 27 47  1  0
 28 48  1  0
 29 30  2  0
 29 34  1  0
 30 31  1  0
 30 49  1  0
 31 32  2  0
 31 50  1  0
 32 33  1  0
 32 51  1  0
 33 34  2  0
 33 52  1  0
 34 53  1  0
M  CHG  1  20  -1
A    1
-0.0982671
A    2
0.40434667
A    3
-0.044007502
A    4
-0.3271363
A    5
0.15092248
A    6
-0.54457325
A    7
0.14601476
A    8
-0.18815193
A    9
-0.102294385
A   10
-0.13519949
A   11
-0.03859315
A   12
-0.24620835
A   13
0.04448162
A   14
-0.14925934
A   15
-0.10976487
A   16
-0.11122529
A   17
-0.09317569
A   18
-0.14007765
A   19
0.5528104
A   20
-0.5963666
A   21
-0.5679785
A   22
-0.17270465
A   23
0.1127752
A   24
-0.16279407
A   25
-0.15196423
A   26
0.06770035
A   27
-0.12720506
A   28
-0.14844717
A   29
0.0728345
A   30
-0.15568277
A   31
-0.09901697
A   32
-0.112509824
A   33
-0.101332515
A   34
-0.1337123
A   35
0.11757085
A   36
0.12354353
A   37
0.11364359
A   38
0.12365405
A   39
0.12562227
A   40
0.123834595
A   41
0.11952876
A   42
0.11603514
A   43
0.12418836
A   44
0.14064944
A   45
0.12538452
A   46
0.113762885
A   47
0.12085868
A   48
0.1203085
A   49
0.112095825
A   50
0.11810862
A   51
0.11916159
A   52
0.12485802
A   53
0.12295372
M  END
>  <Name>  (66) 
ligand_128

>  <IC50 (nM)>  (66) 
6700

>  <charge>  (66) 
0

$$$$
ligand_59
     RDKit          3D

 51 53  0  0  0  0  0  0  0  0999 V2000
   73.2565   23.5142   54.0058 C   0  0  0  0  0  0  0  0  0  0  0  0
   73.9445   24.7321   54.0854 C   0  0  0  0  0  0  0  0  0  0  0  0
   75.2951   24.8201   53.7300 C   0  0  0  0  0  0  0  0  0  0  0  0
   75.9881   23.6890   53.2821 C   0  0  0  0  0  0  0  0  0  0  0  0
   75.2934   22.4743   53.1994 C   0  0  0  0  0  0  0  0  0  0  0  0
   73.9420   22.3869   53.5585 C   0  0  0  0  0  0  0  0  0  0  0  0
   71.9022   23.5137   54.4025 N   0  0  0  0  0  0  0  0  0  0  0  0
   71.0221   22.4304   54.4358 C   0  0  0  0  0  0  0  0  0  0  0  0
   71.2790   21.2873   54.0717 O   0  0  0  0  0  0  0  0  0  0  0  0
   69.6644   22.8537   54.9953 C   0  0  0  0  0  0  0  0  0  0  0  0
   68.5831   21.4629   55.4195 S   0  0  0  0  0  0  0  0  0  0  0  0
   77.4533   23.7500   52.8910 C   0  0  0  0  0  0  0  0  0  0  0  0
   77.6762   24.6772   51.6937 C   0  0  0  0  0  0  0  0  0  0  0  0
   78.3354   24.1630   54.0719 C   0  0  0  0  0  0  0  0  0  0  0  0
   68.2465   20.8290   53.7954 C   0  0  0  0  0  0  0  0  0  0  0  0
   67.6416   19.8258   51.3741 C   0  0  0  0  0  0  0  0  0  0  0  0
   67.5591   19.0375   52.5084 C   0  0  0  0  0  0  0  0  0  0  0  0
   68.0221   21.1360   51.5546 C   0  0  0  0  0  0  0  0  0  0  0  0
   67.8663   19.5431   53.7242 N   0  0  0  0  0  0  0  0  0  0  0  0
   68.3109   21.6697   52.7511 N   0  0  0  0  0  0  0  0  0  0  0  0
   67.1551   17.6090   52.4842 C   0  0  0  0  0  0  0  0  0  0  0  0
   66.0988   15.6800   51.3883 C   0  0  0  0  0  0  0  0  0  0  0  0
   66.4256   14.8526   52.4576 C   0  0  0  0  0  0  0  0  0  0  0  0
   67.1029   15.3976   53.5452 C   0  0  0  0  0  0  0  0  0  0  0  0
   67.4607   16.7518   53.5581 C   0  0  0  0  0  0  0  0  0  0  0  0
   66.4540   17.0378   51.4059 C   0  0  0  0  0  0  0  0  0  0  0  0
   66.1461   13.5202   52.5650 O   0  0  0  0  0  0  0  0  0  0  0  0
   65.4561   12.9089   51.4803 C   0  0  0  0  0  0  0  0  0  0  0  0
   73.4429   25.6316   54.4313 H   0  0  0  0  0  0  0  0  0  0  0  0
   75.8008   25.7809   53.8099 H   0  0  0  0  0  0  0  0  0  0  0  0
   75.7968   21.5729   52.8551 H   0  0  0  0  0  0  0  0  0  0  0  0
   73.4588   21.4174   53.4779 H   0  0  0  0  0  0  0  0  0  0  0  0
   71.5408   24.4093   54.7070 H   0  0  0  0  0  0  0  0  0  0  0  0
   69.8378   23.4130   55.9216 H   0  0  0  0  0  0  0  0  0  0  0  0
   69.1757   23.5356   54.2919 H   0  0  0  0  0  0  0  0  0  0  0  0
   77.7753   22.7456   52.5852 H   0  0  0  0  0  0  0  0  0  0  0  0
   77.0556   24.3742   50.8430 H   0  0  0  0  0  0  0  0  0  0  0  0
   78.7230   24.6464   51.3726 H   0  0  0  0  0  0  0  0  0  0  0  0
   77.4318   25.7185   51.9307 H   0  0  0  0  0  0  0  0  0  0  0  0
   78.1852   23.4930   54.9259 H   0  0  0  0  0  0  0  0  0  0  0  0
   78.1210   25.1837   54.4068 H   0  0  0  0  0  0  0  0  0  0  0  0
   79.3942   24.1202   53.7946 H   0  0  0  0  0  0  0  0  0  0  0  0
   67.4311   19.4536   50.3811 H   0  0  0  0  0  0  0  0  0  0  0  0
   68.1073   21.8142   50.7105 H   0  0  0  0  0  0  0  0  0  0  0  0
   65.5658   15.3080   50.5209 H   0  0  0  0  0  0  0  0  0  0  0  0
   67.3581   14.7637   54.3916 H   0  0  0  0  0  0  0  0  0  0  0  0
   67.9973   17.1367   54.4252 H   0  0  0  0  0  0  0  0  0  0  0  0
   66.1564   17.6409   50.5522 H   0  0  0  0  0  0  0  0  0  0  0  0
   65.3167   11.8517   51.7256 H   0  0  0  0  0  0  0  0  0  0  0  0
   66.0445   12.9643   50.5586 H   0  0  0  0  0  0  0  0  0  0  0  0
   64.4652   13.3545   51.3439 H   0  0  0  0  0  0  0  0  0  0  0  0
  1  2  2  0
  1  6  1  0
  1  7  1  0
  2  3  1  0
  2 29  1  0
  3  4  2  0
  3 30  1  0
  4  5  1  0
  4 12  1  0
  5  6  2  0
  5 31  1  0
  6 32  1  0
  7  8  1  0
  7 33  1  0
  8  9  2  0
  8 10  1  0
 10 11  1  0
 10 34  1  0
 10 35  1  0
 11 15  1  0
 12 13  1  0
 12 14  1  0
 12 36  1  0
 13 37  1  0
 13 38  1  0
 13 39  1  0
 14 40  1  0
 14 41  1  0
 14 42  1  0
 15 19  2  0
 15 20  1  0
 16 17  2  0
 16 18  1  0
 16 43  1  0
 17 19  1  0
 17 21  1  0
 18 20  2  0
 18 44  1  0
 21 25  1  0
 21 26  2  0
 22 23  2  0
 22 26  1  0
 22 45  1  0
 23 24  1  0
 23 27  1  0
 24 25  2  0
 24 46  1  0
 25 47  1  0
 26 48  1  0
 27 28  1  0
 28 49  1  0
 28 50  1  0
 28 51  1  0
A    1
0.27276343
A    2
-0.20579426
A    3
-0.11790625
A    4
0.07039755
A    5
-0.12003561
A    6
-0.20849429
A    7
-0.51253635
A    8
0.63598174
A    9
-0.5146675
A   10
-0.3109654
A   11
-0.03881858
A   12
0.078324884
A   13
-0.39398846
A   14
-0.38003176
A   15
0.33288983
A   16
-0.24471463
A   17
0.2564284
A   18
0.11576671
A   19
-0.44527063
A   20
-0.4167074
A   21
0.025247427
A   22
-0.25454637
A   23
0.3119297
A   24
-0.24778974
A   25
-0.106733136
A   26
-0.107454516
A   27
-0.20502335
A   28
-0.16669072
A   29
0.13773103
A   30
0.13615462
A   31
0.13443154
A   32
0.13452758
A   33
0.30513632
A   34
0.16612707
A   35
0.15158397
A   36
0.053068057
A   37
0.0900159
A   38
0.091807246
A   39
0.089704044
A   40
0.09428894
A   41
0.0806533
A   42
0.092183635
A   43
0.1532668
A   44
0.12805098
A   45
0.14858444
A   46
0.14512819
A   47
0.12826565
A   48
0.13223797
A   49
0.10342604
A   50
0.10579107
A   51
0.096274786
M  END
>  <Name>  (67) 
ligand_59

>  <IC50 (nM)>  (67) 
400000

>  <charge>  (67) 
0

$$$$
ligand_99
     RDKit          3D

 35 36  0  0  0  0  0  0  0  0999 V2000
   69.1559   13.2401   55.2973 C   0  0  0  0  0  0  0  0  0  0  0  0
   69.4062   14.0091   54.1585 C   0  0  0  0  0  0  0  0  0  0  0  0
   69.7709   15.3516   54.2828 C   0  0  0  0  0  0  0  0  0  0  0  0
   69.8773   15.9284   55.5487 C   0  0  0  0  0  0  0  0  0  0  0  0
   69.6657   15.1476   56.6869 C   0  0  0  0  0  0  0  0  0  0  0  0
   69.2806   13.8103   56.5648 C   0  0  0  0  0  0  0  0  0  0  0  0
   69.8291   15.7187   58.0350 C   0  0  0  0  0  0  0  0  0  0  0  0
   71.2158   15.9981   58.5519 C   0  0  0  0  0  0  0  0  0  0  0  0
   68.8110   16.0596   58.6403 O   0  0  0  0  0  0  0  0  0  0  0  0
   72.3241   15.1689   57.9735 C   0  0  0  0  0  0  0  0  0  0  0  0
   72.3164   13.6621   58.2320 C   0  0  0  0  0  0  0  0  0  0  0  0
   73.2574   15.6501   57.3286 O   0  0  0  0  0  0  0  0  0  0  0  0
   73.2201   12.9489   57.6962 O   0  0  0  0  0  0  0  0  0  0  0  0
   71.3690   13.2472   58.9758 O   0  0  0  0  0  0  0  0  0  0  0  0
   70.2406   17.2466   55.6263 O   0  0  0  0  0  0  0  0  0  0  0  0
   69.0799   18.0748   55.7615 C   0  0  0  0  0  0  0  0  0  0  0  0
   69.4970   19.5153   55.5772 C   0  0  0  0  0  0  0  0  0  0  0  0
   69.3684   20.4398   56.6234 C   0  0  0  0  0  0  0  0  0  0  0  0
   69.7395   21.7746   56.4382 C   0  0  0  0  0  0  0  0  0  0  0  0
   70.2403   22.1917   55.2064 C   0  0  0  0  0  0  0  0  0  0  0  0
   70.3894   21.2801   54.1636 C   0  0  0  0  0  0  0  0  0  0  0  0
   70.0184   19.9465   54.3483 C   0  0  0  0  0  0  0  0  0  0  0  0
   70.6682   23.8443   54.9671 Cl  0  0  0  0  0  0  0  0  0  0  0  0
   68.8948   12.1888   55.2040 H   0  0  0  0  0  0  0  0  0  0  0  0
   69.3352   13.5569   53.1733 H   0  0  0  0  0  0  0  0  0  0  0  0
   69.9820   15.9420   53.3964 H   0  0  0  0  0  0  0  0  0  0  0  0
   69.1249   13.2055   57.4566 H   0  0  0  0  0  0  0  0  0  0  0  0
   71.2206   15.8519   59.6378 H   0  0  0  0  0  0  0  0  0  0  0  0
   71.4369   17.0541   58.3597 H   0  0  0  0  0  0  0  0  0  0  0  0
   68.3247   17.8321   55.0015 H   0  0  0  0  0  0  0  0  0  0  0  0
   68.6289   17.9387   56.7505 H   0  0  0  0  0  0  0  0  0  0  0  0
   68.9839   20.1231   57.5914 H   0  0  0  0  0  0  0  0  0  0  0  0
   69.6390   22.4766   57.2606 H   0  0  0  0  0  0  0  0  0  0  0  0
   70.7980   21.5926   53.2080 H   0  0  0  0  0  0  0  0  0  0  0  0
   70.1470   19.2362   53.5339 H   0  0  0  0  0  0  0  0  0  0  0  0
  1  2  2  0
  1  6  1  0
  1 24  1  0
  2  3  1  0
  2 25  1  0
  3  4  2  0
  3 26  1  0
  4  5  1  0
  4 15  1  0
  5  6  2  0
  5  7  1  0
  6 27  1  0
  7  8  1  0
  7  9  2  0
  8 10  1  0
  8 28  1  0
  8 29  1  0
 10 11  1  0
 10 12  2  0
 11 13  2  0
 11 14  1  0
 15 16  1  0
 16 17  1  0
 16 30  1  0
 16 31  1  0
 17 18  2  0
 17 22  1  0
 18 19  1  0
 18 32  1  0
 19 20  2  0
 19 33  1  0
 20 21  1  0
 20 23  1  0
 21 22  2  0
 21 34  1  0
 22 35  1  0
M  CHG  1  14  -1
A    1
-0.120491244
A    2
-0.09660558
A    3
-0.21664806
A    4
0.22594425
A    5
-0.1565511
A    6
-0.09739943
A    7
0.43324417
A    8
-0.40658394
A    9
-0.51670784
A   10
0.3378525
A   11
0.4749222
A   12
-0.4445944
A   13
-0.5107523
A   14
-0.59234804
A   15
-0.23113167
A   16
-0.03243387
A   17
0.06378845
A   18
-0.13213447
A   19
-0.17874877
A   20
0.13441752
A   21
-0.16830856
A   22
-0.120700374
A   23
-0.08658764
A   24
0.11634316
A   25
0.113850415
A   26
0.1323776
A   27
0.12613724
A   28
0.1528773
A   29
0.14398246
A   30
0.075215735
A   31
0.08166193
A   32
0.13201094
A   33
0.12778404
A   34
0.12668386
A   35
0.10963367
M  END
>  <Name>  (68) 
ligand_99

>  <IC50 (nM)>  (68) 
28700

>  <charge>  (68) 
0

$$$$
ligand_88
     RDKit          3D

 30 33  0  0  0  0  0  0  0  0999 V2000
   70.5950   20.7357   53.3012 C   0  0  0  0  0  0  0  0  0  0  0  0
   71.6305   21.6779   53.2349 C   0  0  0  0  0  0  0  0  0  0  0  0
   71.7020   22.7556   54.1258 C   0  0  0  0  0  0  0  0  0  0  0  0
   70.7286   22.9287   55.1201 C   0  0  0  0  0  0  0  0  0  0  0  0
   69.6415   20.9280   54.3043 C   0  0  0  0  0  0  0  0  0  0  0  0
   68.5214   20.2457   54.7013 N   0  0  0  0  0  0  0  0  0  0  0  0
   69.6813   21.9937   55.1989 C   0  0  0  0  0  0  0  0  0  0  0  0
   68.5974   21.9295   56.0389 N   0  0  0  0  0  0  0  0  0  0  0  0
   67.8691   20.8718   55.6951 N   0  0  0  0  0  0  0  0  0  0  0  0
   67.8874   19.1996   54.0373 O   0  0  0  0  0  0  0  0  0  0  0  0
   68.3608   18.0000   54.4487 C   0  0  0  0  0  0  0  0  0  0  0  0
   69.3407   17.8123   55.1531 O   0  0  0  0  0  0  0  0  0  0  0  0
   67.5346   16.8806   53.8966 C   0  0  0  0  0  0  0  0  0  0  0  0
   66.3015   17.1031   53.2523 C   0  0  0  0  0  0  0  0  0  0  0  0
   68.0185   15.5713   54.0650 C   0  0  0  0  0  0  0  0  0  0  0  0
   67.2995   14.4587   53.5972 C   0  0  0  0  0  0  0  0  0  0  0  0
   66.0707   14.6683   52.9557 C   0  0  0  0  0  0  0  0  0  0  0  0
   65.6040   15.9713   52.8003 C   0  0  0  0  0  0  0  0  0  0  0  0
   65.1890   13.7586   52.4225 N   0  0  0  0  0  0  0  0  0  0  0  0
   64.1970   14.4791   51.9535 C   0  0  0  0  0  0  0  0  0  0  0  0
   64.3991   15.8158   52.1583 N   0  0  0  0  0  0  0  0  0  0  0  0
   70.5501   19.8940   52.6183 H   0  0  0  0  0  0  0  0  0  0  0  0
   72.3991   21.5580   52.4735 H   0  0  0  0  0  0  0  0  0  0  0  0
   72.5226   23.4689   54.0502 H   0  0  0  0  0  0  0  0  0  0  0  0
   70.7797   23.7665   55.8103 H   0  0  0  0  0  0  0  0  0  0  0  0
   65.8904   18.0982   53.1192 H   0  0  0  0  0  0  0  0  0  0  0  0
   68.9677   15.4002   54.5722 H   0  0  0  0  0  0  0  0  0  0  0  0
   67.6737   13.4485   53.7311 H   0  0  0  0  0  0  0  0  0  0  0  0
   63.3129   14.0953   51.4619 H   0  0  0  0  0  0  0  0  0  0  0  0
   63.7636   16.5517   51.8855 H   0  0  0  0  0  0  0  0  0  0  0  0
  1  2  2  0
  1  5  1  0
  1 22  1  0
  2  3  1  0
  2 23  1  0
  3  4  2  0
  3 24  1  0
  4  7  1  0
  4 25  1  0
  5  6  1  0
  5  7  2  0
  6  9  1  0
  6 10  1  0
  7  8  1  0
  8  9  2  0
 10 11  1  0
 11 12  2  0
 11 13  1  0
 13 14  2  0
 13 15  1  0
 14 18  1  0
 14 26  1  0
 15 16  2  0
 15 27  1  0
 16 17  1  0
 16 28  1  0
 17 18  2  0
 17 19  1  0
 18 21  1  0
 19 20  2  0
 20 21  1  0
 20 29  1  0
 21 30  1  0
A    1
-0.15306206
A    2
-0.08337301
A    3
-0.0947564
A    4
-0.1531918
A    5
0.03547162
A    6
0.20668998
A    7
0.14016335
A    8
-0.24981582
A    9
-0.0959335
A   10
-0.24221869
A   11
0.56522775
A   12
-0.4759931
A   13
-0.055108383
A   14
-0.22940606
A   15
-0.11870724
A   16
-0.15959786
A   17
0.1473572
A   18
0.16224009
A   19
-0.43632984
A   20
0.14480038
A   21
-0.34111187
A   22
0.14457367
A   23
0.12886633
A   24
0.13796064
A   25
0.15242812
A   26
0.14100063
A   27
0.13830917
A   28
0.1378673
A   29
0.13131575
A   30
0.37433365
M  END
>  <Name>  (69) 
ligand_88

>  <charge>  (69) 
0

$$$$
ligand_77
     RDKit          3D

 37 39  0  0  0  0  0  0  0  0999 V2000
   69.3825   21.1406   54.8512 C   0  0  0  0  0  0  0  0  0  0  0  0
   69.4610   22.0304   55.9042 C   0  0  0  0  0  0  0  0  0  0  0  0
   70.5787   22.8640   55.6445 C   0  0  0  0  0  0  0  0  0  0  0  0
   71.1127   22.4213   54.4572 C   0  0  0  0  0  0  0  0  0  0  0  0
   68.8786   18.7340   55.0396 N   0  0  0  0  0  0  0  0  0  0  0  0
   68.3154   17.5397   54.7250 C   0  0  0  0  0  0  0  0  0  0  0  0
   68.4580   20.0194   54.5110 C   0  0  0  0  0  0  0  0  0  0  0  0
   70.3944   21.3799   53.9677 O   0  0  0  0  0  0  0  0  0  0  0  0
   66.9581   17.3597   53.6894 S   0  0  0  0  0  0  0  0  0  0  0  0
   66.9702   15.6598   53.8057 C   0  0  0  0  0  0  0  0  0  0  0  0
   66.0331   14.8366   53.1059 C   0  0  0  0  0  0  0  0  0  0  0  0
   65.2864   14.1495   52.5434 N   0  0  0  0  0  0  0  0  0  0  0  0
   68.7449   16.3025   55.1806 C   0  0  0  0  0  0  0  0  0  0  0  0
   70.1284   14.6437   56.5223 C   0  0  0  0  0  0  0  0  0  0  0  0
   69.8713   16.0828   56.0929 C   0  0  0  0  0  0  0  0  0  0  0  0
   67.9759   15.2098   54.6389 C   0  0  0  0  0  0  0  0  0  0  0  0
   68.2851   13.7793   54.9892 C   0  0  0  0  0  0  0  0  0  0  0  0
   69.7534   13.5890   55.4528 C   0  0  0  0  0  0  0  0  0  0  0  0
   69.8956   12.1858   56.0730 C   0  0  0  0  0  0  0  0  0  0  0  0
   70.7180   13.6772   54.2517 C   0  0  0  0  0  0  0  0  0  0  0  0
   70.5502   17.0026   56.5491 O   0  0  0  0  0  0  0  0  0  0  0  0
   68.7936   22.0693   56.7540 H   0  0  0  0  0  0  0  0  0  0  0  0
   70.9523   23.6801   56.2482 H   0  0  0  0  0  0  0  0  0  0  0  0
   71.9572   22.7189   53.8537 H   0  0  0  0  0  0  0  0  0  0  0  0
   69.7084   18.7550   55.6387 H   0  0  0  0  0  0  0  0  0  0  0  0
   68.3788   19.9691   53.4177 H   0  0  0  0  0  0  0  0  0  0  0  0
   67.4606   20.2620   54.8978 H   0  0  0  0  0  0  0  0  0  0  0  0
   71.1898   14.5526   56.7842 H   0  0  0  0  0  0  0  0  0  0  0  0
   69.5472   14.4789   57.4385 H   0  0  0  0  0  0  0  0  0  0  0  0
   68.0794   13.1241   54.1336 H   0  0  0  0  0  0  0  0  0  0  0  0
   67.5991   13.4804   55.7931 H   0  0  0  0  0  0  0  0  0  0  0  0
   69.6369   11.4052   55.3487 H   0  0  0  0  0  0  0  0  0  0  0  0
   69.2367   12.0664   56.9404 H   0  0  0  0  0  0  0  0  0  0  0  0
   70.9227   12.0037   56.4090 H   0  0  0  0  0  0  0  0  0  0  0  0
   70.4802   12.9146   53.5013 H   0  0  0  0  0  0  0  0  0  0  0  0
   71.7547   13.5162   54.5690 H   0  0  0  0  0  0  0  0  0  0  0  0
   70.6760   14.6509   53.7536 H   0  0  0  0  0  0  0  0  0  0  0  0
  1  2  2  0
  1  7  1  0
  1  8  1  0
  2  3  1  0
  2 22  1  0
  3  4  2  0
  3 23  1  0
  4  8  1  0
  4 24  1  0
  5  6  1  0
  5  7  1  0
  5 25  1  0
  6  9  1  0
  6 13  2  0
  7 26  1  0
  7 27  1  0
  9 10  1  0
 10 11  1  0
 10 16  2  0
 11 12  3  0
 13 15  1  0
 13 16  1  0
 14 15  1  0
 14 18  1  0
 14 28  1  0
 14 29  1  0
 15 21  2  0
 16 17  1  0
 17 18  1  0
 17 30  1  0
 17 31  1  0
 18 19  1  0
 18 20  1  0
 19 32  1  0
 19 33  1  0
 19 34  1  0
 20 35  1  0
 20 36  1  0
 20 37  1  0
A    1
0.23543847
A    2
-0.24244152
A    3
-0.16244788
A    4
0.047464788
A    5
-0.3698104
A    6
0.21635117
A    7
-0.080037065
A    8
-0.19786452
A    9
0.07418676
A   10
-0.15681979
A   11
0.3189556
A   12
-0.45948252
A   13
-0.19727401
A   14
-0.32195783
A   15
0.47660008
A   16
0.115952685
A   17
-0.256365
A   18
0.23566312
A   19
-0.40433764
A   20
-0.39422622
A   21
-0.48454973
A   22
0.16104962
A   23
0.1683369
A   24
0.13449603
A   25
0.28800064
A   26
0.09806777
A   27
0.09772242
A   28
0.11708318
A   29
0.13175347
A   30
0.118970215
A   31
0.12389425
A   32
0.09709235
A   33
0.08280456
A   34
0.096610606
A   35
0.103667624
A   36
0.09961349
A   37
0.08783815
M  END
>  <Name>  (70) 
ligand_77

>  <IC50 (nM)>  (70) 
16000

>  <charge>  (70) 
0

$$$$
ligand_98
     RDKit          3D

 35 36  0  0  0  0  0  0  0  0999 V2000
   68.1782   19.6458   52.1585 C   0  0  0  0  0  0  0  0  0  0  0  0
   68.8206   20.2643   53.2330 C   0  0  0  0  0  0  0  0  0  0  0  0
   69.0572   19.5506   54.4069 C   0  0  0  0  0  0  0  0  0  0  0  0
   68.6620   18.2129   54.4909 C   0  0  0  0  0  0  0  0  0  0  0  0
   68.0003   17.5860   53.4226 C   0  0  0  0  0  0  0  0  0  0  0  0
   67.7711   18.3121   52.2498 C   0  0  0  0  0  0  0  0  0  0  0  0
   67.5781   16.1578   53.5919 C   0  0  0  0  0  0  0  0  0  0  0  0
   66.7948   15.4518   52.5108 C   0  0  0  0  0  0  0  0  0  0  0  0
   67.9275   15.5562   54.6113 O   0  0  0  0  0  0  0  0  0  0  0  0
   65.4026   15.9699   52.2928 C   0  0  0  0  0  0  0  0  0  0  0  0
   64.4700   15.1394   51.4065 C   0  0  0  0  0  0  0  0  0  0  0  0
   64.9916   17.0431   52.7377 O   0  0  0  0  0  0  0  0  0  0  0  0
   63.2540   15.4957   51.3065 O   0  0  0  0  0  0  0  0  0  0  0  0
   65.0111   14.1381   50.8319 O   0  0  0  0  0  0  0  0  0  0  0  0
   69.7151   20.0404   55.5035 O   0  0  0  0  0  0  0  0  0  0  0  0
   69.5526   21.4341   55.7862 C   0  0  0  0  0  0  0  0  0  0  0  0
   70.6778   22.3091   55.2638 C   0  0  0  0  0  0  0  0  0  0  0  0
   70.5518   23.7020   55.3526 C   0  0  0  0  0  0  0  0  0  0  0  0
   71.5504   24.5333   54.8448 C   0  0  0  0  0  0  0  0  0  0  0  0
   72.6873   23.9804   54.2603 C   0  0  0  0  0  0  0  0  0  0  0  0
   72.8341   22.5978   54.1767 C   0  0  0  0  0  0  0  0  0  0  0  0
   71.8336   21.7660   54.6796 C   0  0  0  0  0  0  0  0  0  0  0  0
   73.9131   25.0138   53.6337 Cl  0  0  0  0  0  0  0  0  0  0  0  0
   67.9865   20.2038   51.2451 H   0  0  0  0  0  0  0  0  0  0  0  0
   69.1389   21.2950   53.1182 H   0  0  0  0  0  0  0  0  0  0  0  0
   68.8583   17.6585   55.4066 H   0  0  0  0  0  0  0  0  0  0  0  0
   67.2587   17.8723   51.3987 H   0  0  0  0  0  0  0  0  0  0  0  0
   66.7231   14.3976   52.8049 H   0  0  0  0  0  0  0  0  0  0  0  0
   67.3582   15.4926   51.5731 H   0  0  0  0  0  0  0  0  0  0  0  0
   68.5780   21.8022   55.4392 H   0  0  0  0  0  0  0  0  0  0  0  0
   69.5504   21.5232   56.8793 H   0  0  0  0  0  0  0  0  0  0  0  0
   69.6748   24.1548   55.8119 H   0  0  0  0  0  0  0  0  0  0  0  0
   71.4301   25.6097   54.9088 H   0  0  0  0  0  0  0  0  0  0  0  0
   73.7238   22.1682   53.7237 H   0  0  0  0  0  0  0  0  0  0  0  0
   71.9339   20.6837   54.5825 H   0  0  0  0  0  0  0  0  0  0  0  0
  1  2  2  0
  1  6  1  0
  1 24  1  0
  2  3  1  0
  2 25  1  0
  3  4  2  0
  3 15  1  0
  4  5  1  0
  4 26  1  0
  5  6  2  0
  5  7  1  0
  6 27  1  0
  7  8  1  0
  7  9  2  0
  8 10  1  0
  8 28  1  0
  8 29  1  0
 10 11  1  0
 10 12  2  0
 11 13  2  0
 11 14  1  0
 15 16  1  0
 16 17  1  0
 16 30  1  0
 16 31  1  0
 17 18  2  0
 17 22  1  0
 18 19  1  0
 18 32  1  0
 19 20  2  0
 19 33  1  0
 20 21  1  0
 20 23  1  0
 21 22  2  0
 21 34  1  0
 22 35  1  0
M  CHG  1  14  -1
A    1
-0.09090329
A    2
-0.23708197
A    3
0.29756832
A    4
-0.29954883
A    5
-0.014199788
A    6
-0.13658439
A    7
0.4784872
A    8
-0.41013557
A    9
-0.5247357
A   10
0.31551856
A   11
0.478926
A   12
-0.47254252
A   13
-0.5222925
A   14
-0.53961444
A   15
-0.2682183
A   16
-0.023553487
A   17
0.06746214
A   18
-0.14315423
A   19
-0.17784035
A   20
0.14146651
A   21
-0.18104608
A   22
-0.14100082
A   23
-0.099402174
A   24
0.12575792
A   25
0.118259184
A   26
0.14256616
A   27
0.12586354
A   28
0.14104877
A   29
0.14595632
A   30
0.078502074
A   31
0.08805867
A   32
0.1390631
A   33
0.12990989
A   34
0.13467556
A   35
0.13276444
M  END
>  <Name>  (71) 
ligand_98

>  <IC50 (nM)>  (71) 
13600

>  <charge>  (71) 
-1

$$$$
ligand_90
     RDKit          3D

 31 34  0  0  0  0  0  0  0  0999 V2000
   71.9818   21.2149   53.9265 C   0  0  0  0  0  0  0  0  0  0  0  0
   72.8111   22.2845   53.5701 C   0  0  0  0  0  0  0  0  0  0  0  0
   72.5337   23.5921   53.9831 C   0  0  0  0  0  0  0  0  0  0  0  0
   71.4079   23.8772   54.7684 C   0  0  0  0  0  0  0  0  0  0  0  0
   70.8711   21.5279   54.7150 C   0  0  0  0  0  0  0  0  0  0  0  0
   69.8616   20.7930   55.2711 N   0  0  0  0  0  0  0  0  0  0  0  0
   70.5646   22.8178   55.1330 C   0  0  0  0  0  0  0  0  0  0  0  0
   69.4038   22.8036   55.8652 N   0  0  0  0  0  0  0  0  0  0  0  0
   68.9592   21.5526   55.9097 N   0  0  0  0  0  0  0  0  0  0  0  0
   69.5890   19.4564   55.0487 O   0  0  0  0  0  0  0  0  0  0  0  0
   70.2193   18.6798   55.9638 C   0  0  0  0  0  0  0  0  0  0  0  0
   71.0066   19.0616   56.8197 O   0  0  0  0  0  0  0  0  0  0  0  0
   69.8531   17.2977   55.7743 C   0  0  0  0  0  0  0  0  0  0  0  0
   69.0008   16.6902   54.8676 C   0  0  0  0  0  0  0  0  0  0  0  0
   68.9982   15.2910   55.1231 C   0  0  0  0  0  0  0  0  0  0  0  0
   69.8613   15.0695   56.1938 C   0  0  0  0  0  0  0  0  0  0  0  0
   70.3612   16.2933   56.5686 N   0  0  0  0  0  0  0  0  0  0  0  0
   68.3390   14.1896   54.5448 C   0  0  0  0  0  0  0  0  0  0  0  0
   68.5665   12.9072   55.0597 C   0  0  0  0  0  0  0  0  0  0  0  0
   69.4363   12.7161   56.1312 C   0  0  0  0  0  0  0  0  0  0  0  0
   70.1025   13.7956   56.7200 C   0  0  0  0  0  0  0  0  0  0  0  0
   72.2002   20.1993   53.6141 H   0  0  0  0  0  0  0  0  0  0  0  0
   73.6932   22.0923   52.9615 H   0  0  0  0  0  0  0  0  0  0  0  0
   73.2004   24.4003   53.6910 H   0  0  0  0  0  0  0  0  0  0  0  0
   71.1868   24.8901   55.0865 H   0  0  0  0  0  0  0  0  0  0  0  0
   68.4295   17.1960   54.0991 H   0  0  0  0  0  0  0  0  0  0  0  0
   71.0111   16.4462   57.3294 H   0  0  0  0  0  0  0  0  0  0  0  0
   67.6575   14.3278   53.7105 H   0  0  0  0  0  0  0  0  0  0  0  0
   68.0568   12.0543   54.6183 H   0  0  0  0  0  0  0  0  0  0  0  0
   69.5995   11.7131   56.5181 H   0  0  0  0  0  0  0  0  0  0  0  0
   70.7779   13.6440   57.5557 H   0  0  0  0  0  0  0  0  0  0  0  0
  1  2  2  0
  1  5  1  0
  1 22  1  0
  2  3  1  0
  2 23  1  0
  3  4  2  0
  3 24  1  0
  4  7  1  0
  4 25  1  0
  5  6  1  0
  5  7  2  0
  6  9  1  0
  6 10  1  0
  7  8  1  0
  8  9  2  0
 10 11  1  0
 11 12  2  0
 11 13  1  0
 13 14  2  0
 13 17  1  0
 14 15  1  0
 14 26  1  0
 15 16  2  0
 15 18  1  0
 16 17  1  0
 16 21  1  0
 17 27  1  0
 18 19  2  0
 18 28  1  0
 19 20  1  0
 19 29  1  0
 20 21  2  0
 20 30  1  0
 21 31  1  0
A    1
-0.15128551
A    2
-0.08688005
A    3
-0.094589114
A    4
-0.15694712
A    5
0.020312816
A    6
0.20423022
A    7
0.12423602
A    8
-0.24134164
A    9
-0.11898162
A   10
-0.23588634
A   11
0.53555936
A   12
-0.45667383
A   13
0.04545441
A   14
-0.29449797
A   15
0.014125082
A   16
0.18073699
A   17
-0.3125935
A   18
-0.12359979
A   19
-0.11210961
A   20
-0.08783668
A   21
-0.21634987
A   22
0.13903978
A   23
0.12744963
A   24
0.13174808
A   25
0.14535864
A   26
0.16294605
A   27
0.32961905
A   28
0.12662838
A   29
0.13065758
A   30
0.12760232
A   31
0.14386822
M  END
>  <Name>  (72) 
ligand_90

>  <charge>  (72) 
0

$$$$
ligand_83
     RDKit          3D

 65 68  0  0  0  0  0  0  0  0999 V2000
   68.3901   19.0908   48.7545 C   0  0  0  0  0  0  0  0  0  0  0  0
   67.2209   18.4342   49.1370 C   0  0  0  0  0  0  0  0  0  0  0  0
   66.5804   18.7817   50.3270 C   0  0  0  0  0  0  0  0  0  0  0  0
   67.1047   19.7942   51.1422 C   0  0  0  0  0  0  0  0  0  0  0  0
   68.2826   20.4467   50.7466 C   0  0  0  0  0  0  0  0  0  0  0  0
   68.9204   20.0990   49.5563 C   0  0  0  0  0  0  0  0  0  0  0  0
   66.4233   20.1835   52.4280 C   0  0  0  0  0  0  0  0  0  0  0  0
   67.1514   19.6693   53.5667 N   0  0  0  0  0  0  0  0  0  0  0  0
   67.9336   20.4681   54.3482 C   0  0  0  0  0  0  0  0  0  0  0  0
   68.1227   21.6503   54.0692 O   0  0  0  0  0  0  0  0  0  0  0  0
   68.4877   19.8735   55.4690 N   0  0  0  0  0  0  0  0  0  0  0  0
   69.3491   20.7159   56.3127 C   0  0  0  0  0  0  0  0  0  0  0  0
   70.6866   21.1346   55.6770 C   0  0  0  0  0  0  0  0  0  0  0  0
   71.7467   20.0528   55.6499 C   0  0  0  0  0  0  0  0  0  0  0  0
   72.1976   19.4546   54.4544 C   0  0  0  0  0  0  0  0  0  0  0  0
   73.2262   18.4979   54.5126 C   0  0  0  0  0  0  0  0  0  0  0  0
   73.7949   18.1264   55.7307 C   0  0  0  0  0  0  0  0  0  0  0  0
   73.3435   18.7068   56.9094 C   0  0  0  0  0  0  0  0  0  0  0  0
   72.3315   19.6643   56.8699 C   0  0  0  0  0  0  0  0  0  0  0  0
   71.6274   19.8237   53.1119 C   0  0  0  0  0  0  0  0  0  0  0  0
   68.0417   18.6019   56.0498 C   0  0  0  0  0  0  0  0  0  0  0  0
   69.1321   17.5723   56.0406 C   0  0  0  0  0  0  0  0  0  0  0  0
   69.5950   16.9759   54.9271 C   0  0  0  0  0  0  0  0  0  0  0  0
   69.6715   17.1663   57.3740 C   0  0  0  0  0  0  0  0  0  0  0  0
   69.2587   17.6711   58.4142 O   0  0  0  0  0  0  0  0  0  0  0  0
   70.6361   16.1964   57.3988 N   0  0  0  0  0  0  0  0  0  0  0  0
   71.1468   15.5870   56.2485 C   0  0  0  0  0  0  0  0  0  0  0  0
   70.6409   15.9545   55.0001 C   0  0  0  0  0  0  0  0  0  0  0  0
   71.1536   15.3489   53.8510 C   0  0  0  0  0  0  0  0  0  0  0  0
   72.1565   14.6317   56.3582 C   0  0  0  0  0  0  0  0  0  0  0  0
   72.6829   14.0248   55.2067 C   0  0  0  0  0  0  0  0  0  0  0  0
   72.1750   14.3861   53.9401 C   0  0  0  0  0  0  0  0  0  0  0  0
   72.7040   13.7597   52.6783 C   0  0  0  0  0  0  0  0  0  0  0  0
   73.7921   13.0174   55.3487 C   0  0  0  0  0  0  0  0  0  0  0  0
   68.8704   18.8365   47.8133 H   0  0  0  0  0  0  0  0  0  0  0  0
   66.7906   17.6733   48.4888 H   0  0  0  0  0  0  0  0  0  0  0  0
   65.6550   18.2760   50.5955 H   0  0  0  0  0  0  0  0  0  0  0  0
   68.6970   21.2429   51.3646 H   0  0  0  0  0  0  0  0  0  0  0  0
   69.8159   20.6305   49.2434 H   0  0  0  0  0  0  0  0  0  0  0  0
   66.3143   21.2727   52.4825 H   0  0  0  0  0  0  0  0  0  0  0  0
   65.4163   19.7538   52.4749 H   0  0  0  0  0  0  0  0  0  0  0  0
   67.2431   18.6715   53.6341 H   0  0  0  0  0  0  0  0  0  0  0  0
   68.7769   21.6271   56.5317 H   0  0  0  0  0  0  0  0  0  0  0  0
   69.5186   20.2210   57.2753 H   0  0  0  0  0  0  0  0  0  0  0  0
   70.5334   21.5552   54.6797 H   0  0  0  0  0  0  0  0  0  0  0  0
   71.0971   21.9650   56.2683 H   0  0  0  0  0  0  0  0  0  0  0  0
   73.5901   18.0278   53.6016 H   0  0  0  0  0  0  0  0  0  0  0  0
   74.5870   17.3828   55.7588 H   0  0  0  0  0  0  0  0  0  0  0  0
   73.7815   18.4202   57.8611 H   0  0  0  0  0  0  0  0  0  0  0  0
   72.0056   20.1172   57.8052 H   0  0  0  0  0  0  0  0  0  0  0  0
   72.0344   19.1924   52.3143 H   0  0  0  0  0  0  0  0  0  0  0  0
   71.8737   20.8627   52.8704 H   0  0  0  0  0  0  0  0  0  0  0  0
   70.5419   19.6897   53.1055 H   0  0  0  0  0  0  0  0  0  0  0  0
   67.6681   18.8191   57.0569 H   0  0  0  0  0  0  0  0  0  0  0  0
   67.1703   18.2017   55.5229 H   0  0  0  0  0  0  0  0  0  0  0  0
   69.2252   17.2517   53.9463 H   0  0  0  0  0  0  0  0  0  0  0  0
   70.9922   15.9473   58.3121 H   0  0  0  0  0  0  0  0  0  0  0  0
   70.7663   15.6341   52.8752 H   0  0  0  0  0  0  0  0  0  0  0  0
   72.5447   14.3637   57.3377 H   0  0  0  0  0  0  0  0  0  0  0  0
   72.2151   14.1721   51.7892 H   0  0  0  0  0  0  0  0  0  0  0  0
   72.5195   12.6807   52.6858 H   0  0  0  0  0  0  0  0  0  0  0  0
   73.7778   13.9479   52.5805 H   0  0  0  0  0  0  0  0  0  0  0  0
   74.7085   13.3992   54.8874 H   0  0  0  0  0  0  0  0  0  0  0  0
   73.5117   12.0704   54.8767 H   0  0  0  0  0  0  0  0  0  0  0  0
   74.0120   12.8053   56.4005 H   0  0  0  0  0  0  0  0  0  0  0  0
  1  2  2  0
  1  6  1  0
  1 35  1  0
  2  3  1  0
  2 36  1  0
  3  4  2  0
  3 37  1  0
  4  5  1  0
  4  7  1  0
  5  6  2  0
  5 38  1  0
  6 39  1  0
  7  8  1  0
  7 40  1  0
  7 41  1  0
  8  9  1  0
  8 42  1  0
  9 10  2  0
  9 11  1  0
 11 12  1  0
 11 21  1  0
 12 13  1  0
 12 43  1  0
 12 44  1  0
 13 14  1  0
 13 45  1  0
 13 46  1  0
 14 15  2  0
 14 19  1  0
 15 16  1  0
 15 20  1  0
 16 17  2  0
 16 47  1  0
 17 18  1  0
 17 48  1  0
 18 19  2  0
 18 49  1  0
 19 50  1  0
 20 51  1  0
 20 52  1  0
 20 53  1  0
 21 22  1  0
 21 54  1  0
 21 55  1  0
 22 23  2  0
 22 24  1  0
 23 28  1  0
 23 56  1  0
 24 25  2  0
 24 26  1  0
 26 27  1  0
 26 57  1  0
 27 28  2  0
 27 30  1  0
 28 29  1  0
 29 32  2  0
 29 58  1  0
 30 31  2  0
 30 59  1  0
 31 32  1  0
 31 34  1  0
 32 33  1  0
 33 60  1  0
 33 61  1  0
 33 62  1  0
 34 63  1  0
 34 64  1  0
 34 65  1  0
A    1
-0.09271789
A    2
-0.09671866
A    3
-0.14803202
A    4
0.076128
A    5
-0.1445087
A    6
-0.09765238
A    7
-0.03426782
A    8
-0.531674
A    9
0.6278682
A   10
-0.5654799
A   11
-0.24503532
A   12
-0.04349856
A   13
-0.19654655
A   14
0.033905078
A   15
0.0952896
A   16
-0.15809928
A   17
-0.089496434
A   18
-0.10999816
A   19
-0.1318985
A   20
-0.40765962
A   21
-0.10500431
A   22
-0.06257684
A   23
-0.13114892
A   24
0.502729
A   25
-0.55220354
A   26
-0.38757396
A   27
0.19863847
A   28
0.017338835
A   29
-0.22232404
A   30
-0.2916298
A   31
0.09171572
A   32
0.08794719
A   33
-0.39272568
A   34
-0.4025196
A   35
0.11851349
A   36
0.12221073
A   37
0.13466252
A   38
0.13981351
A   39
0.1315443
A   40
0.0798915
A   41
0.09241342
A   42
0.29022002
A   43
0.07836513
A   44
0.086267106
A   45
0.09723218
A   46
0.09681998
A   47
0.11951644
A   48
0.14456885
A   49
0.13008365
A   50
0.12602158
A   51
0.112602964
A   52
0.11376941
A   53
0.115596935
A   54
0.093491144
A   55
0.093100265
A   56
0.14155528
A   57
0.337884
A   58
0.1321649
A   59
0.13726763
A   60
0.10345584
A   61
0.108529195
A   62
0.10581424
A   63
0.11179075
A   64
0.10291859
A   65
0.11134488
M  END
>  <Name>  (73) 
ligand_83

>  <IC50 (nM)>  (73) 
17200

>  <charge>  (73) 
0

$$$$
ligand_93
     RDKit          3D

 34 36  0  0  0  0  0  0  0  0999 V2000
   70.6157   23.2469   55.3573 C   0  0  0  0  0  0  0  0  0  0  0  0
   71.5621   23.2682   54.3236 C   0  0  0  0  0  0  0  0  0  0  0  0
   71.6764   22.1908   53.4381 C   0  0  0  0  0  0  0  0  0  0  0  0
   70.8646   21.0552   53.5538 C   0  0  0  0  0  0  0  0  0  0  0  0
   69.7884   22.1176   55.4817 C   0  0  0  0  0  0  0  0  0  0  0  0
   68.7941   21.8258   56.3793 N   0  0  0  0  0  0  0  0  0  0  0  0
   69.9305   21.0555   54.5929 C   0  0  0  0  0  0  0  0  0  0  0  0
   68.9874   20.1566   55.0236 N   0  0  0  0  0  0  0  0  0  0  0  0
   68.3198   20.6185   56.1010 N   0  0  0  0  0  0  0  0  0  0  0  0
   68.7886   18.7819   54.6017 C   0  0  0  0  0  0  0  0  0  0  0  0
   67.9745   18.6597   53.3358 C   0  0  0  0  0  0  0  0  0  0  0  0
   67.3290   17.3434   53.0254 C   0  0  0  0  0  0  0  0  0  0  0  0
   67.6368   16.1649   53.7103 C   0  0  0  0  0  0  0  0  0  0  0  0
   66.3905   17.2892   51.9892 C   0  0  0  0  0  0  0  0  0  0  0  0
   65.7647   16.0802   51.6515 C   0  0  0  0  0  0  0  0  0  0  0  0
   66.0548   14.8934   52.3315 C   0  0  0  0  0  0  0  0  0  0  0  0
   67.0025   14.9606   53.3622 C   0  0  0  0  0  0  0  0  0  0  0  0
   65.4673   13.6788   52.0319 N   0  0  0  0  0  0  0  0  0  0  0  0
   67.8537   19.5781   52.5268 O   0  0  0  0  0  0  0  0  0  0  0  0
   64.4814   13.4999   50.9929 C   0  0  0  0  0  0  0  0  0  0  0  0
   70.5176   24.0803   56.0454 H   0  0  0  0  0  0  0  0  0  0  0  0
   72.2077   24.1361   54.2058 H   0  0  0  0  0  0  0  0  0  0  0  0
   72.4046   22.2305   52.6309 H   0  0  0  0  0  0  0  0  0  0  0  0
   70.9483   20.2319   52.8526 H   0  0  0  0  0  0  0  0  0  0  0  0
   68.2879   18.2662   55.4279 H   0  0  0  0  0  0  0  0  0  0  0  0
   69.7772   18.3387   54.4444 H   0  0  0  0  0  0  0  0  0  0  0  0
   68.3689   16.1365   54.5112 H   0  0  0  0  0  0  0  0  0  0  0  0
   66.1334   18.1885   51.4313 H   0  0  0  0  0  0  0  0  0  0  0  0
   65.0418   16.0903   50.8398 H   0  0  0  0  0  0  0  0  0  0  0  0
   67.2602   14.0559   53.9106 H   0  0  0  0  0  0  0  0  0  0  0  0
   65.7173   12.8679   52.5847 H   0  0  0  0  0  0  0  0  0  0  0  0
   64.1730   12.4502   50.9582 H   0  0  0  0  0  0  0  0  0  0  0  0
   64.8900   13.7579   50.0105 H   0  0  0  0  0  0  0  0  0  0  0  0
   63.5879   14.1020   51.1867 H   0  0  0  0  0  0  0  0  0  0  0  0
  1  2  2  0
  1  5  1  0
  1 21  1  0
  2  3  1  0
  2 22  1  0
  3  4  2  0
  3 23  1  0
  4  7  1  0
  4 24  1  0
  5  6  1  0
  5  7  2  0
  6  9  2  0
  7  8  1  0
  8  9  1  0
  8 10  1  0
 10 11  1  0
 10 25  1  0
 10 26  1  0
 11 12  1  0
 11 19  2  0
 12 13  2  0
 12 14  1  0
 13 17  1  0
 13 27  1  0
 14 15  2  0
 14 28  1  0
 15 16  1  0
 15 29  1  0
 16 17  2  0
 16 18  1  0
 17 30  1  0
 18 20  1  0
 18 31  1  0
 20 32  1  0
 20 33  1  0
 20 34  1  0
A    1
-0.16759218
A    2
-0.09820797
A    3
-0.08751666
A    4
-0.19266033
A    5
0.1155093
A    6
-0.28369668
A    7
0.051967807
A    8
0.15495814
A    9
-0.09426276
A   10
-0.2246974
A   11
0.4372117
A   12
-0.04770111
A   13
-0.095373906
A   14
-0.09720052
A   15
-0.23968732
A   16
0.31245905
A   17
-0.24927723
A   18
-0.40828136
A   19
-0.47130337
A   20
-0.23773432
A   21
0.14301345
A   22
0.12890898
A   23
0.12922594
A   24
0.1335602
A   25
0.12976323
A   26
0.12530215
A   27
0.13002293
A   28
0.12880689
A   29
0.14678365
A   30
0.14704454
A   31
0.27733612
A   32
0.101995096
A   33
0.10561788
A   34
0.09570624
M  END
>  <Name>  (74) 
ligand_93

>  <charge>  (74) 
0

$$$$
ligand_78
     RDKit          3D

 36 38  0  0  0  0  0  0  0  0999 V2000
   69.8478   16.9421   55.9829 C   0  0  0  0  0  0  0  0  0  0  0  0
   69.3718   16.8408   54.6662 C   0  0  0  0  0  0  0  0  0  0  0  0
   70.1313   18.1984   56.3211 N   0  0  0  0  0  0  0  0  0  0  0  0
   70.9640   16.3847   58.4454 C   0  0  0  0  0  0  0  0  0  0  0  0
   69.9917   15.6274   57.1261 S   0  0  0  0  0  0  0  0  0  0  0  0
   68.8870   15.6720   54.0080 C   0  0  0  0  0  0  0  0  0  0  0  0
   68.4820   14.7224   53.4778 N   0  0  0  0  0  0  0  0  0  0  0  0
   69.9639   18.9035   55.1803 N   0  0  0  0  0  0  0  0  0  0  0  0
   70.3747   20.2305   55.2183 C   0  0  0  0  0  0  0  0  0  0  0  0
   70.9277   21.0218   54.2262 C   0  0  0  0  0  0  0  0  0  0  0  0
   71.0561   22.3097   54.7996 C   0  0  0  0  0  0  0  0  0  0  0  0
   70.3129   21.0318   56.3326 N   0  0  0  0  0  0  0  0  0  0  0  0
   70.6562   22.3135   56.0767 N   0  0  0  0  0  0  0  0  0  0  0  0
   69.8228   20.7178   57.6585 C   0  0  0  0  0  0  0  0  0  0  0  0
   71.5884   23.5544   54.1870 C   0  0  0  0  0  0  0  0  0  0  0  0
   71.3980   20.6254   52.9368 N   0  0  0  0  0  0  0  0  0  0  0  0
   71.9636   19.5278   52.8688 O   0  0  0  0  0  0  0  0  0  0  0  0
   69.3897   18.1368   54.1734 C   0  0  0  0  0  0  0  0  0  0  0  0
   68.8482   18.6560   52.9452 C   0  0  0  0  0  0  0  0  0  0  0  0
   68.2552   19.0865   50.5874 C   0  0  0  0  0  0  0  0  0  0  0  0
   67.6632   19.9905   51.4392 C   0  0  0  0  0  0  0  0  0  0  0  0
   67.9978   19.7369   52.8020 C   0  0  0  0  0  0  0  0  0  0  0  0
   69.1977   17.9369   51.4285 S   0  0  0  0  0  0  0  0  0  0  0  0
   71.2328   21.4253   52.0092 O   0  0  0  0  0  0  0  0  0  0  0  0
   71.1692   15.6342   59.2137 H   0  0  0  0  0  0  0  0  0  0  0  0
   70.4143   17.2079   58.9105 H   0  0  0  0  0  0  0  0  0  0  0  0
   71.9196   16.7528   58.0615 H   0  0  0  0  0  0  0  0  0  0  0  0
   69.6771   21.6460   58.2188 H   0  0  0  0  0  0  0  0  0  0  0  0
   70.5690   20.1018   58.1654 H   0  0  0  0  0  0  0  0  0  0  0  0
   68.8635   20.2022   57.5718 H   0  0  0  0  0  0  0  0  0  0  0  0
   72.5742   23.3765   53.7458 H   0  0  0  0  0  0  0  0  0  0  0  0
   71.6946   24.3527   54.9291 H   0  0  0  0  0  0  0  0  0  0  0  0
   70.9134   23.9118   53.4030 H   0  0  0  0  0  0  0  0  0  0  0  0
   68.1761   19.0399   49.5096 H   0  0  0  0  0  0  0  0  0  0  0  0
   67.0184   20.7926   51.1002 H   0  0  0  0  0  0  0  0  0  0  0  0
   67.6217   20.3287   53.6286 H   0  0  0  0  0  0  0  0  0  0  0  0
  1  2  1  0
  1  3  2  0
  1  5  1  0
  2  6  1  0
  2 18  2  0
  3  8  1  0
  4  5  1  0
  4 25  1  0
  4 26  1  0
  4 27  1  0
  6  7  3  0
  8  9  1  0
  8 18  1  0
  9 10  2  0
  9 12  1  0
 10 11  1  0
 10 16  1  0
 11 13  2  0
 11 15  1  0
 12 13  1  0
 12 14  1  0
 14 28  1  0
 14 29  1  0
 14 30  1  0
 15 31  1  0
 15 32  1  0
 15 33  1  0
 16 17  2  0
 16 24  1  0
 18 19  1  0
 19 22  2  0
 19 23  1  0
 20 21  2  0
 20 23  1  0
 20 34  1  0
 21 22  1  0
 21 35  1  0
 22 36  1  0
M  CHG  2  16   1  24  -1
A    1
0.12597474
A    2
-0.12369176
A    3
-0.28548354
A    4
-0.40452927
A    5
0.06140722
A    6
0.2823494
A    7
-0.45446333
A    8
0.11096979
A    9
0.17901328
A   10
-0.19838752
A   11
0.2767378
A   12
0.21584247
A   13
-0.37722185
A   14
-0.29683402
A   15
-0.44092956
A   16
0.61728716
A   17
-0.36541843
A   18
0.085940816
A   19
-0.053493533
A   20
-0.17716694
A   21
-0.1115038
A   22
-0.11362022
A   23
0.10303224
A   24
-0.36452222
A   25
0.13284743
A   26
0.13602181
A   27
0.15244041
A   28
0.13167375
A   29
0.13206911
A   30
0.13324055
A   31
0.14034231
A   32
0.13291126
A   33
0.14521132
A   34
0.16306908
A   35
0.15327452
A   36
0.15560952
M  END
>  <Name>  (75) 
ligand_78

>  <IC50 (nM)>  (75) 
18000

>  <charge>  (75) 
0

$$$$
ligand_125
     RDKit          3D

 62 66  0  0  0  0  0  0  0  0999 V2000
   69.2176   21.0859   54.6028 C   0  0  0  0  0  0  0  0  0  0  0  0
   70.1160   21.4890   55.5901 C   0  0  0  0  0  0  0  0  0  0  0  0
   70.6114   20.5510   56.4798 C   0  0  0  0  0  0  0  0  0  0  0  0
   70.1953   19.2222   56.3781 C   0  0  0  0  0  0  0  0  0  0  0  0
   69.2795   18.7919   55.3871 C   0  0  0  0  0  0  0  0  0  0  0  0
   68.7837   19.7437   54.4711 C   0  0  0  0  0  0  0  0  0  0  0  0
   68.8913   17.3828   55.4200 C   0  0  0  0  0  0  0  0  0  0  0  0
   69.8810   16.5145   55.7834 O   0  0  0  0  0  0  0  0  0  0  0  0
   69.3890   15.2337   55.7701 C   0  0  0  0  0  0  0  0  0  0  0  0
   68.0555   15.3029   55.3957 C   0  0  0  0  0  0  0  0  0  0  0  0
   67.7375   16.6692   55.1924 C   0  0  0  0  0  0  0  0  0  0  0  0
   70.2112   14.0988   55.9917 C   0  0  0  0  0  0  0  0  0  0  0  0
   71.1981   14.0793   56.8981 C   0  0  0  0  0  0  0  0  0  0  0  0
   71.4922   15.0259   57.9988 C   0  0  0  0  0  0  0  0  0  0  0  0
   72.6973   14.5211   58.5276 N   0  0  0  0  0  0  0  0  0  0  0  0
   73.1265   13.3130   57.9580 N   0  0  0  0  0  0  0  0  0  0  0  0
   72.2768   13.0720   56.9947 C   0  0  0  0  0  0  0  0  0  0  0  0
   70.8044   15.9618   58.3605 O   0  0  0  0  0  0  0  0  0  0  0  0
   73.5344   15.1740   59.4643 C   0  0  0  0  0  0  0  0  0  0  0  0
   74.7539   14.6097   59.8453 C   0  0  0  0  0  0  0  0  0  0  0  0
   75.6335   15.2992   60.6924 C   0  0  0  0  0  0  0  0  0  0  0  0
   75.3216   16.5694   61.2076 C   0  0  0  0  0  0  0  0  0  0  0  0
   74.0937   17.1201   60.8285 C   0  0  0  0  0  0  0  0  0  0  0  0
   73.2164   16.4316   59.9820 C   0  0  0  0  0  0  0  0  0  0  0  0
   72.3961   11.9733   56.0436 C   0  0  0  0  0  0  0  0  0  0  0  0
   67.8309   19.4420   53.3272 C   0  0  0  0  0  0  0  0  0  0  0  0
   67.9096   18.3142   52.7420 O   0  0  0  0  0  0  0  0  0  0  0  0
   67.0213   20.3784   52.9934 O   0  0  0  0  0  0  0  0  0  0  0  0
   72.6160   12.2645   54.6913 C   0  0  0  0  0  0  0  0  0  0  0  0
   72.6553   11.2290   53.7615 C   0  0  0  0  0  0  0  0  0  0  0  0
   72.4783    9.9154   54.1872 C   0  0  0  0  0  0  0  0  0  0  0  0
   72.2776    9.6340   55.5413 C   0  0  0  0  0  0  0  0  0  0  0  0
   72.2566   10.6591   56.4834 C   0  0  0  0  0  0  0  0  0  0  0  0
   76.3153   17.3383   62.0901 C   0  0  0  0  0  0  0  0  0  0  0  0
   75.6399   18.4230   62.9617 C   0  0  0  0  0  0  0  0  0  0  0  0
   77.3447   18.0275   61.1731 C   0  0  0  0  0  0  0  0  0  0  0  0
   77.0656   16.4011   63.0654 C   0  0  0  0  0  0  0  0  0  0  0  0
   68.8377   21.8238   53.8991 H   0  0  0  0  0  0  0  0  0  0  0  0
   70.4173   22.5299   55.6497 H   0  0  0  0  0  0  0  0  0  0  0  0
   71.3142   20.8375   57.2545 H   0  0  0  0  0  0  0  0  0  0  0  0
   70.5806   18.5033   57.1006 H   0  0  0  0  0  0  0  0  0  0  0  0
   67.3871   14.4662   55.2543 H   0  0  0  0  0  0  0  0  0  0  0  0
   66.7955   17.0900   54.8700 H   0  0  0  0  0  0  0  0  0  0  0  0
   70.0717   13.2803   55.2947 H   0  0  0  0  0  0  0  0  0  0  0  0
   75.0542   13.6358   59.4646 H   0  0  0  0  0  0  0  0  0  0  0  0
   76.5844   14.8246   60.9152 H   0  0  0  0  0  0  0  0  0  0  0  0
   73.7772   18.1156   61.1305 H   0  0  0  0  0  0  0  0  0  0  0  0
   72.2931   16.9400   59.7196 H   0  0  0  0  0  0  0  0  0  0  0  0
   72.7435   13.2918   54.3548 H   0  0  0  0  0  0  0  0  0  0  0  0
   72.7940   11.4588   52.7071 H   0  0  0  0  0  0  0  0  0  0  0  0
   72.4982    9.1026   53.4652 H   0  0  0  0  0  0  0  0  0  0  0  0
   72.1289    8.6069   55.8577 H   0  0  0  0  0  0  0  0  0  0  0  0
   72.1103   10.4312   57.5367 H   0  0  0  0  0  0  0  0  0  0  0  0
   74.8428   17.9958   63.5813 H   0  0  0  0  0  0  0  0  0  0  0  0
   75.2074   19.2284   62.3578 H   0  0  0  0  0  0  0  0  0  0  0  0
   76.3641   18.8969   63.6355 H   0  0  0  0  0  0  0  0  0  0  0  0
   77.8981   17.2992   60.5689 H   0  0  0  0  0  0  0  0  0  0  0  0
   78.0770   18.5967   61.7571 H   0  0  0  0  0  0  0  0  0  0  0  0
   76.8576   18.7243   60.4806 H   0  0  0  0  0  0  0  0  0  0  0  0
   77.7260   15.6993   62.5453 H   0  0  0  0  0  0  0  0  0  0  0  0
   76.3634   15.8171   63.6717 H   0  0  0  0  0  0  0  0  0  0  0  0
   77.7026   16.9721   63.7515 H   0  0  0  0  0  0  0  0  0  0  0  0
  1  2  2  0
  1  6  1  0
  1 38  1  0
  2  3  1  0
  2 39  1  0
  3  4  2  0
  3 40  1  0
  4  5  1  0
  4 41  1  0
  5  6  2  0
  5  7  1  0
  6 26  1  0
  7  8  1  0
  7 11  2  0
  8  9  1  0
  9 10  2  0
  9 12  1  0
 10 11  1  0
 10 42  1  0
 11 43  1  0
 12 13  2  0
 12 44  1  0
 13 14  1  0
 13 17  1  0
 14 15  1  0
 14 18  2  0
 15 16  1  0
 15 19  1  0
 16 17  2  0
 17 25  1  0
 19 20  2  0
 19 24  1  0
 20 21  1  0
 20 45  1  0
 21 22  2  0
 21 46  1  0
 22 23  1  0
 22 34  1  0
 23 24  2  0
 23 47  1  0
 24 48  1  0
 25 29  2  0
 25 33  1  0
 26 27  2  0
 26 28  1  0
 29 30  1  0
 29 49  1  0
 30 31  2  0
 30 50  1  0
 31 32  1  0
 31 51  1  0
 32 33  2  0
 32 52  1  0
 33 53  1  0
 34 35  1  0
 34 36  1  0
 34 37  1  0
 35 54  1  0
 35 55  1  0
 35 56  1  0
 36 57  1  0
 36 58  1  0
 36 59  1  0
 37 60  1  0
 37 61  1  0
 37 62  1  0
M  CHG  1  28  -1
A    1
-0.12263584
A    2
-0.102980934
A    3
-0.10866162
A    4
-0.12929069
A    5
-0.0034443617
A    6
-0.090230845
A    7
0.2102022
A    8
-0.21345462
A    9
0.24307154
A   10
-0.2513048
A   11
-0.22213912
A   12
-0.19804391
A   13
-0.11351173
A   14
0.4246053
A   15
-0.04279899
A   16
-0.27114668
A   17
0.15532722
A   18
-0.5290654
A   19
0.16321594
A   20
-0.18738498
A   21
-0.1253934
A   22
0.035987496
A   23
-0.13728666
A   24
-0.20546629
A   25
0.03753644
A   26
0.57875407
A   27
-0.56805944
A   28
-0.58705
A   29
-0.13990574
A   30
-0.09986702
A   31
-0.09704326
A   32
-0.0977507
A   33
-0.13257182
A   34
0.20357874
A   35
-0.42091912
A   36
-0.42820114
A   37
-0.40617839
A   38
0.12963101
A   39
0.12742436
A   40
0.121217765
A   41
0.12625775
A   42
0.16681996
A   43
0.16830672
A   44
0.14419031
A   45
0.1333086
A   46
0.12025463
A   47
0.1300594
A   48
0.13914882
A   49
0.13194351
A   50
0.12299405
A   51
0.11723508
A   52
0.12007515
A   53
0.12772438
A   54
0.09339333
A   55
0.0845499
A   56
0.09630154
A   57
0.09559117
A   58
0.096992634
A   59
0.09571478
A   60
0.09677926
A   61
0.09928449
A   62
0.09430971
M  END
>  <Name>  (76) 
ligand_125

>  <IC50 (nM)>  (76) 
8600

>  <charge>  (76) 
-1

$$$$
ligand_110
     RDKit          3D

 59 64  0  0  0  0  0  0  0  0999 V2000
   68.9046   20.2391   48.7758 C   0  0  0  0  0  0  0  0  0  0  0  0
   68.3776   20.7227   49.9114 N   0  0  0  0  0  0  0  0  0  0  0  0
   68.0656   20.1794   47.6648 N   0  0  0  0  0  0  0  0  0  0  0  0
   68.2848   21.2768   46.7087 C   0  0  0  0  0  0  0  0  0  0  0  0
   67.4030   22.4869   47.0511 C   0  0  0  0  0  0  0  0  0  0  0  0
   66.0119   22.1172   47.0533 O   0  0  0  0  0  0  0  0  0  0  0  0
   65.7963   21.1441   48.0998 C   0  0  0  0  0  0  0  0  0  0  0  0
   66.6412   19.8724   47.8845 C   0  0  0  0  0  0  0  0  0  0  0  0
   71.1465   20.0919   49.7351 C   0  0  0  0  0  0  0  0  0  0  0  0
   70.2594   19.8667   48.6538 C   0  0  0  0  0  0  0  0  0  0  0  0
   70.7389   19.1276   47.4168 C   0  0  0  0  0  0  0  0  0  0  0  0
   72.2543   19.1334   47.2391 C   0  0  0  0  0  0  0  0  0  0  0  0
   72.9321   18.7273   48.5349 C   0  0  0  0  0  0  0  0  0  0  0  0
   72.6134   19.7385   49.6292 C   0  0  0  0  0  0  0  0  0  0  0  0
   69.2484   20.9569   50.9032 C   0  0  0  0  0  0  0  0  0  0  0  0
   70.6107   20.7185   50.8915 C   0  0  0  0  0  0  0  0  0  0  0  0
   68.6897   21.6227   52.3595 S   0  0  0  0  0  0  0  0  0  0  0  0
   70.2698   21.6876   53.0217 C   0  0  0  0  0  0  0  0  0  0  0  0
   71.2066   21.1914   52.1162 C   0  0  0  0  0  0  0  0  0  0  0  0
   72.5354   21.1587   52.3962 N   0  0  0  0  0  0  0  0  0  0  0  0
   72.8700   21.6500   53.5884 C   0  0  0  0  0  0  0  0  0  0  0  0
   72.0435   22.1240   54.5218 N   0  0  0  0  0  0  0  0  0  0  0  0
   70.7228   22.1219   54.2647 C   0  0  0  0  0  0  0  0  0  0  0  0
   69.6444   22.6127   55.5787 S   0  0  0  0  0  0  0  0  0  0  0  0
   68.9553   20.9892   56.0503 C   0  0  0  0  0  0  0  0  0  0  0  0
   70.0019   19.8862   56.0252 C   0  0  0  0  0  0  0  0  0  0  0  0
   69.7967   18.9270   55.0539 N   0  0  0  0  0  0  0  0  0  0  0  0
   70.9600   19.8577   56.7923 O   0  0  0  0  0  0  0  0  0  0  0  0
   70.7362   17.8451   54.8485 C   0  0  0  0  0  0  0  0  0  0  0  0
   70.3491   16.6915   55.6966 C   0  0  0  0  0  0  0  0  0  0  0  0
   69.9638   15.5504   55.0545 O   0  0  0  0  0  0  0  0  0  0  0  0
   69.6771   14.6329   56.0147 C   0  0  0  0  0  0  0  0  0  0  0  0
   69.8676   15.1674   57.2673 C   0  0  0  0  0  0  0  0  0  0  0  0
   70.3052   16.4972   57.0622 C   0  0  0  0  0  0  0  0  0  0  0  0
   68.0053   20.9072   45.7143 H   0  0  0  0  0  0  0  0  0  0  0  0
   69.3331   21.5922   46.6514 H   0  0  0  0  0  0  0  0  0  0  0  0
   67.5316   23.2609   46.2877 H   0  0  0  0  0  0  0  0  0  0  0  0
   67.6676   22.9280   48.0193 H   0  0  0  0  0  0  0  0  0  0  0  0
   64.7332   20.8828   48.0873 H   0  0  0  0  0  0  0  0  0  0  0  0
   66.0056   21.6134   49.0675 H   0  0  0  0  0  0  0  0  0  0  0  0
   66.2795   19.3745   46.9761 H   0  0  0  0  0  0  0  0  0  0  0  0
   66.5006   19.1635   48.7092 H   0  0  0  0  0  0  0  0  0  0  0  0
   70.3917   18.0894   47.4986 H   0  0  0  0  0  0  0  0  0  0  0  0
   70.3039   19.5412   46.5029 H   0  0  0  0  0  0  0  0  0  0  0  0
   72.5935   20.1330   46.9392 H   0  0  0  0  0  0  0  0  0  0  0  0
   72.5331   18.4434   46.4347 H   0  0  0  0  0  0  0  0  0  0  0  0
   72.5897   17.7288   48.8349 H   0  0  0  0  0  0  0  0  0  0  0  0
   74.0169   18.6662   48.3934 H   0  0  0  0  0  0  0  0  0  0  0  0
   73.1700   20.6651   49.4408 H   0  0  0  0  0  0  0  0  0  0  0  0
   72.9671   19.3258   50.5804 H   0  0  0  0  0  0  0  0  0  0  0  0
   73.9273   21.6601   53.8286 H   0  0  0  0  0  0  0  0  0  0  0  0
   68.5548   21.0569   57.0667 H   0  0  0  0  0  0  0  0  0  0  0  0
   68.1199   20.7489   55.3863 H   0  0  0  0  0  0  0  0  0  0  0  0
   68.9482   18.9166   54.5047 H   0  0  0  0  0  0  0  0  0  0  0  0
   70.7045   17.5836   53.7860 H   0  0  0  0  0  0  0  0  0  0  0  0
   71.7512   18.1763   55.0910 H   0  0  0  0  0  0  0  0  0  0  0  0
   69.3611   13.6634   55.6553 H   0  0  0  0  0  0  0  0  0  0  0  0
   69.7175   14.6599   58.2100 H   0  0  0  0  0  0  0  0  0  0  0  0
   70.5687   17.2340   57.8096 H   0  0  0  0  0  0  0  0  0  0  0  0
  1  2  2  0
  1  3  1  0
  1 10  1  0
  2 15  1  0
  3  4  1  0
  3  8  1  0
  4  5  1  0
  4 35  1  0
  4 36  1  0
  5  6  1  0
  5 37  1  0
  5 38  1  0
  6  7  1  0
  7  8  1  0
  7 39  1  0
  7 40  1  0
  8 41  1  0
  8 42  1  0
  9 10  2  0
  9 14  1  0
  9 16  1  0
 10 11  1  0
 11 12  1  0
 11 43  1  0
 11 44  1  0
 12 13  1  0
 12 45  1  0
 12 46  1  0
 13 14  1  0
 13 47  1  0
 13 48  1  0
 14 49  1  0
 14 50  1  0
 15 16  2  0
 15 17  1  0
 16 19  1  0
 17 18  1  0
 18 19  2  0
 18 23  1  0
 19 20  1  0
 20 21  2  0
 21 22  1  0
 21 51  1  0
 22 23  2  0
 23 24  1  0
 24 25  1  0
 25 26  1  0
 25 52  1  0
 25 53  1  0
 26 27  1  0
 26 28  2  0
 27 29  1  0
 27 54  1  0
 29 30  1  0
 29 55  1  0
 29 56  1  0
 30 31  1  0
 30 34  2  0
 31 32  1  0
 32 33  2  0
 32 57  1  0
 33 34  1  0
 33 58  1  0
 34 59  1  0
A    1
0.28582883
A    2
-0.44078824
A    3
-0.24200982
A    4
-0.08823066
A    5
0.042609554
A    6
-0.29785705
A    7
0.041353278
A    8
-0.09487317
A    9
0.07777601
A   10
-0.101297565
A   11
-0.15942071
A   12
-0.1304952
A   13
-0.120604716
A   14
-0.17357644
A   15
0.17309844
A   16
-0.14174314
A   17
0.039349794
A   18
-0.13740748
A   19
0.21773146
A   20
-0.38709328
A   21
0.17121129
A   22
-0.39294192
A   23
0.19704144
A   24
-0.029934162
A   25
-0.30652225
A   26
0.6145534
A   27
-0.43711495
A   28
-0.51474065
A   29
-0.096337594
A   30
0.26418328
A   31
-0.16399604
A   32
0.06585955
A   33
-0.19077444
A   34
-0.25848758
A   35
0.08945889
A   36
0.0763262
A   37
0.08061215
A   38
0.06714695
A   39
0.075524434
A   40
0.061569374
A   41
0.08785817
A   42
0.07864142
A   43
0.09469197
A   44
0.09274577
A   45
0.07689605
A   46
0.080959976
A   47
0.08052393
A   48
0.08116927
A   49
0.09211769
A   50
0.089103535
A   51
0.10372245
A   52
0.16349773
A   53
0.15186588
A   54
0.29307276
A   55
0.10568014
A   56
0.1085329
A   57
0.14303268
A   58
0.17328386
A   59
0.16761641
M  END
>  <Name>  (77) 
ligand_110

>  <IC50 (nM)>  (77) 
90720

>  <charge>  (77) 
0

$$$$
ligand_39
     RDKit          3D

 47 50  0  0  0  0  0  0  0  0999 V2000
   73.1572   23.3219   54.1950 C   0  0  0  0  0  0  0  0  0  0  0  0
   73.6821   24.5873   53.9085 C   0  0  0  0  0  0  0  0  0  0  0  0
   74.9402   24.7178   53.3170 C   0  0  0  0  0  0  0  0  0  0  0  0
   75.6990   23.5829   53.0031 C   0  0  0  0  0  0  0  0  0  0  0  0
   75.1780   22.3188   53.3025 C   0  0  0  0  0  0  0  0  0  0  0  0
   73.9178   22.1910   53.8952 C   0  0  0  0  0  0  0  0  0  0  0  0
   71.8731   23.2813   54.7707 N   0  0  0  0  0  0  0  0  0  0  0  0
   71.1363   22.1531   55.1181 C   0  0  0  0  0  0  0  0  0  0  0  0
   71.5054   20.9922   54.9768 O   0  0  0  0  0  0  0  0  0  0  0  0
   69.7738   22.5493   55.6766 C   0  0  0  0  0  0  0  0  0  0  0  0
   68.8992   21.1937   56.4834 S   0  0  0  0  0  0  0  0  0  0  0  0
   68.5866   20.1327   55.0947 C   0  0  0  0  0  0  0  0  0  0  0  0
   67.8039   18.4762   53.1122 C   0  0  0  0  0  0  0  0  0  0  0  0
   68.2692   19.7569   52.8683 C   0  0  0  0  0  0  0  0  0  0  0  0
   67.7668   18.0945   54.4240 C   0  0  0  0  0  0  0  0  0  0  0  0
   68.1529   18.9019   55.4188 N   0  0  0  0  0  0  0  0  0  0  0  0
   68.6372   20.6133   53.8460 N   0  0  0  0  0  0  0  0  0  0  0  0
   68.3498   20.2485   51.5040 C   0  0  0  0  0  0  0  0  0  0  0  0
   67.8527   19.8081   50.2990 C   0  0  0  0  0  0  0  0  0  0  0  0
   68.3978   20.6935   49.3352 C   0  0  0  0  0  0  0  0  0  0  0  0
   69.1005   21.3630   51.2865 O   0  0  0  0  0  0  0  0  0  0  0  0
   69.1447   21.6364   49.9289 N   0  0  0  0  0  0  0  0  0  0  0  0
   68.2818   20.5978   47.8837 C   0  0  0  0  0  0  0  0  0  0  0  0
   67.0369   20.2070   45.8311 C   0  0  0  0  0  0  0  0  0  0  0  0
   67.0613   20.3890   47.2171 C   0  0  0  0  0  0  0  0  0  0  0  0
   69.4664   20.6497   47.1259 C   0  0  0  0  0  0  0  0  0  0  0  0
   69.4419   20.4694   45.7438 C   0  0  0  0  0  0  0  0  0  0  0  0
   68.2269   20.2402   45.1078 C   0  0  0  0  0  0  0  0  0  0  0  0
   77.0389   23.7123   52.3288 C   0  0  0  0  0  0  0  0  0  0  0  0
   77.4637   25.0037   52.2279 F   0  0  0  0  0  0  0  0  0  0  0  0
   78.0378   23.0451   52.9703 F   0  0  0  0  0  0  0  0  0  0  0  0
   77.0259   23.2322   51.0508 F   0  0  0  0  0  0  0  0  0  0  0  0
   65.5332   20.3590   48.0312 Cl  0  0  0  0  0  0  0  0  0  0  0  0
   68.1912   19.9856   43.4075 Cl  0  0  0  0  0  0  0  0  0  0  0  0
   73.1189   25.4901   54.1329 H   0  0  0  0  0  0  0  0  0  0  0  0
   75.3270   25.7142   53.1026 H   0  0  0  0  0  0  0  0  0  0  0  0
   75.7479   21.4197   53.0717 H   0  0  0  0  0  0  0  0  0  0  0  0
   73.5599   21.1879   54.1053 H   0  0  0  0  0  0  0  0  0  0  0  0
   71.4428   24.1809   54.9477 H   0  0  0  0  0  0  0  0  0  0  0  0
   69.9245   23.3291   56.4316 H   0  0  0  0  0  0  0  0  0  0  0  0
   69.1666   22.9839   54.8755 H   0  0  0  0  0  0  0  0  0  0  0  0
   67.4783   17.7965   52.3348 H   0  0  0  0  0  0  0  0  0  0  0  0
   67.4204   17.1111   54.7264 H   0  0  0  0  0  0  0  0  0  0  0  0
   67.2228   18.9454   50.1236 H   0  0  0  0  0  0  0  0  0  0  0  0
   66.0933   20.0336   45.3217 H   0  0  0  0  0  0  0  0  0  0  0  0
   70.4252   20.8120   47.6190 H   0  0  0  0  0  0  0  0  0  0  0  0
   70.3683   20.4924   45.1759 H   0  0  0  0  0  0  0  0  0  0  0  0
  1  2  2  0
  1  6  1  0
  1  7  1  0
  2  3  1  0
  2 35  1  0
  3  4  2  0
  3 36  1  0
  4  5  1  0
  4 29  1  0
  5  6  2  0
  5 37  1  0
  6 38  1  0
  7  8  1  0
  7 39  1  0
  8  9  2  0
  8 10  1  0
 10 11  1  0
 10 40  1  0
 10 41  1  0
 11 12  1  0
 12 16  1  0
 12 17  2  0
 13 14  2  0
 13 15  1  0
 13 42  1  0
 14 17  1  0
 14 18  1  0
 15 16  2  0
 15 43  1  0
 18 19  2  0
 18 21  1  0
 19 20  1  0
 19 44  1  0
 20 22  2  0
 20 23  1  0
 21 22  1  0
 23 25  1  0
 23 26  2  0
 24 25  2  0
 24 28  1  0
 24 45  1  0
 25 33  1  0
 26 27  1  0
 26 46  1  0
 27 28  2  0
 27 47  1  0
 28 34  1  0
 29 30  1  0
 29 31  1  0
 29 32  1  0
A    1
0.30187723
A    2
-0.18847995
A    3
-0.08749075
A    4
-0.12809436
A    5
-0.08780562
A    6
-0.20190533
A    7
-0.526632
A    8
0.61580104
A    9
-0.52633727
A   10
-0.30266905
A   11
-0.037152708
A   12
0.37218413
A   13
-0.23931314
A   14
0.19465089
A   15
0.09146213
A   16
-0.41121602
A   17
-0.40868
A   18
0.19703181
A   19
-0.33078128
A   20
0.18181977
A   21
-0.07166474
A   22
-0.2196614
A   23
-0.03257239
A   24
-0.26483697
A   25
0.12791808
A   26
-0.09177804
A   27
-0.1646681
A   28
0.1721808
A   29
0.70870584
A   30
-0.24327227
A   31
-0.20608155
A   32
-0.21777093
A   33
-0.06529265
A   34
-0.069332056
A   35
0.14075875
A   36
0.1339033
A   37
0.14672455
A   38
0.14622657
A   39
0.3281852
A   40
0.16791238
A   41
0.16566661
A   42
0.15593189
A   43
0.12491903
A   44
0.19115558
A   45
0.17237379
A   46
0.14319292
A   47
0.1429063
M  END
>  <Name>  (78) 
ligand_39

>  <IC50 (nM)>  (78) 
15000

>  <charge>  (78) 
0

$$$$
ligand_86
     RDKit          3D

 32 34  0  0  0  0  0  0  0  0999 V2000
   71.8369   20.9327   53.7923 C   0  0  0  0  0  0  0  0  0  0  0  0
   73.0441   21.6375   53.8859 C   0  0  0  0  0  0  0  0  0  0  0  0
   73.0946   22.9476   54.3785 C   0  0  0  0  0  0  0  0  0  0  0  0
   71.9273   23.6008   54.7982 C   0  0  0  0  0  0  0  0  0  0  0  0
   70.6882   21.6089   54.2114 C   0  0  0  0  0  0  0  0  0  0  0  0
   69.3579   21.2855   54.2674 N   0  0  0  0  0  0  0  0  0  0  0  0
   70.7076   22.9085   54.7108 C   0  0  0  0  0  0  0  0  0  0  0  0
   69.4342   23.2832   55.0614 N   0  0  0  0  0  0  0  0  0  0  0  0
   68.6197   22.2606   54.8230 N   0  0  0  0  0  0  0  0  0  0  0  0
   68.7870   20.0297   54.0894 O   0  0  0  0  0  0  0  0  0  0  0  0
   68.3905   19.8481   52.8081 C   0  0  0  0  0  0  0  0  0  0  0  0
   68.6568   20.5691   51.8589 O   0  0  0  0  0  0  0  0  0  0  0  0
   67.5705   18.6060   52.6753 C   0  0  0  0  0  0  0  0  0  0  0  0
   67.1274   18.2368   51.3998 C   0  0  0  0  0  0  0  0  0  0  0  0
   67.2087   17.8078   53.7646 C   0  0  0  0  0  0  0  0  0  0  0  0
   66.4163   16.6635   53.5697 C   0  0  0  0  0  0  0  0  0  0  0  0
   65.9625   16.2838   52.2976 C   0  0  0  0  0  0  0  0  0  0  0  0
   66.3359   17.0913   51.2185 C   0  0  0  0  0  0  0  0  0  0  0  0
   65.1787   15.1517   52.1706 N   0  0  0  0  0  0  0  0  0  0  0  0
   64.6338   14.6815   50.9195 C   0  0  0  0  0  0  0  0  0  0  0  0
   71.7988   19.9217   53.4008 H   0  0  0  0  0  0  0  0  0  0  0  0
   73.9636   21.1529   53.5619 H   0  0  0  0  0  0  0  0  0  0  0  0
   74.0497   23.4671   54.4367 H   0  0  0  0  0  0  0  0  0  0  0  0
   71.9611   24.6143   55.1857 H   0  0  0  0  0  0  0  0  0  0  0  0
   67.3871   18.8407   50.5316 H   0  0  0  0  0  0  0  0  0  0  0  0
   67.5195   18.0568   54.7760 H   0  0  0  0  0  0  0  0  0  0  0  0
   66.1445   16.0640   54.4369 H   0  0  0  0  0  0  0  0  0  0  0  0
   66.0125   16.8481   50.2094 H   0  0  0  0  0  0  0  0  0  0  0  0
   64.9563   14.6276   53.0079 H   0  0  0  0  0  0  0  0  0  0  0  0
   64.0479   13.7734   51.0937 H   0  0  0  0  0  0  0  0  0  0  0  0
   65.4295   14.4323   50.2101 H   0  0  0  0  0  0  0  0  0  0  0  0
   63.9675   15.4266   50.4731 H   0  0  0  0  0  0  0  0  0  0  0  0
  1  2  2  0
  1  5  1  0
  1 21  1  0
  2  3  1  0
  2 22  1  0
  3  4  2  0
  3 23  1  0
  4  7  1  0
  4 24  1  0
  5  6  1  0
  5  7  2  0
  6  9  1  0
  6 10  1  0
  7  8  1  0
  8  9  2  0
 10 11  1  0
 11 12  2  0
 11 13  1  0
 13 14  2  0
 13 15  1  0
 14 18  1  0
 14 25  1  0
 15 16  2  0
 15 26  1  0
 16 17  1  0
 16 27  1  0
 17 18  2  0
 17 19  1  0
 18 28  1  0
 19 20  1  0
 19 29  1  0
 20 30  1  0
 20 31  1  0
 20 32  1  0
A    1
-0.14963773
A    2
-0.08115071
A    3
-0.11032461
A    4
-0.14883117
A    5
0.042131137
A    6
0.1997665
A    7
0.12615377
A    8
-0.24538907
A    9
-0.0761071
A   10
-0.20597905
A   11
0.50400746
A   12
-0.455786
A   13
-0.0990921
A   14
-0.08474213
A   15
-0.08015686
A   16
-0.24310039
A   17
0.30228835
A   18
-0.23316728
A   19
-0.40794852
A   20
-0.24913561
A   21
0.14327349
A   22
0.13611665
A   23
0.11857606
A   24
0.13521826
A   25
0.13748345
A   26
0.14412087
A   27
0.13997641
A   28
0.15424949
A   29
0.28120744
A   30
0.103026696
A   31
0.098143496
A   32
0.104808845
M  END
>  <Name>  (79) 
ligand_86

>  <charge>  (79) 
0

$$$$
ligand_111
     RDKit          3D

 60 63  0  0  0  0  0  0  0  0999 V2000
   72.9835   22.5707   52.5607 C   0  0  0  0  0  0  0  0  0  0  0  0
   72.0699   22.6473   51.3706 C   0  0  0  0  0  0  0  0  0  0  0  0
   70.8422   22.5825   51.9179 C   0  0  0  0  0  0  0  0  0  0  0  0
   70.8077   22.5325   53.4074 C   0  0  0  0  0  0  0  0  0  0  0  0
   72.2159   22.7082   53.6939 N   0  0  0  0  0  0  0  0  0  0  0  0
   74.2090   22.5875   52.5697 O   0  0  0  0  0  0  0  0  0  0  0  0
   72.5378   22.8717   50.2274 O   0  0  0  0  0  0  0  0  0  0  0  0
   69.5576   22.7878   51.2059 C   0  0  0  0  0  0  0  0  0  0  0  0
   69.2810   22.1426   49.9391 C   0  0  0  0  0  0  0  0  0  0  0  0
   68.7279   23.5155   51.7653 O   0  0  0  0  0  0  0  0  0  0  0  0
   69.7370   20.5219   49.6138 S   0  0  0  0  0  0  0  0  0  0  0  0
   68.9651   20.6176   48.0825 C   0  0  0  0  0  0  0  0  0  0  0  0
   68.3775   21.7633   47.8161 N   0  0  0  0  0  0  0  0  0  0  0  0
   68.5510   22.6431   48.8735 C   0  0  0  0  0  0  0  0  0  0  0  0
   70.2580   21.2178   53.9493 C   0  0  0  0  0  0  0  0  0  0  0  0
   68.8826   21.0728   54.2132 C   0  0  0  0  0  0  0  0  0  0  0  0
   68.3523   19.8574   54.6744 C   0  0  0  0  0  0  0  0  0  0  0  0
   69.1893   18.7609   54.8866 C   0  0  0  0  0  0  0  0  0  0  0  0
   70.5584   18.8989   54.6238 C   0  0  0  0  0  0  0  0  0  0  0  0
   71.0893   20.1039   54.1487 C   0  0  0  0  0  0  0  0  0  0  0  0
   72.7378   23.1935   54.9520 C   0  0  0  0  0  0  0  0  0  0  0  0
   72.9989   24.7090   54.9126 C   0  0  0  0  0  0  0  0  0  0  0  0
   74.4505   25.1324   54.6449 C   0  0  0  0  0  0  0  0  0  0  0  0
   74.9484   24.9307   53.2439 N   0  0  0  0  0  0  0  0  0  0  0  0
   74.2400   25.7462   52.1639 C   0  0  0  0  0  0  0  0  0  0  0  0
   74.8831   25.5044   50.7890 C   0  0  0  0  0  0  0  0  0  0  0  0
   76.2932   25.7974   50.8286 O   0  0  0  0  0  0  0  0  0  0  0  0
   76.9403   24.8757   51.7163 C   0  0  0  0  0  0  0  0  0  0  0  0
   76.4554   25.0974   53.1495 C   0  0  0  0  0  0  0  0  0  0  0  0
   68.9683   19.4451   47.1629 C   0  0  0  0  0  0  0  0  0  0  0  0
   67.9555   24.0003   48.7657 C   0  0  0  0  0  0  0  0  0  0  0  0
   71.4689   17.7794   54.8555 N   0  0  0  0  0  0  0  0  0  0  0  0
   72.6663   18.0374   55.0471 O   0  0  0  0  0  0  0  0  0  0  0  0
   70.9821   16.6414   54.8724 O   0  0  0  0  0  0  0  0  0  0  0  0
   70.2733   23.3872   53.8389 H   0  0  0  0  0  0  0  0  0  0  0  0
   68.2041   21.9094   54.0408 H   0  0  0  0  0  0  0  0  0  0  0  0
   67.2817   19.7660   54.8583 H   0  0  0  0  0  0  0  0  0  0  0  0
   68.7652   17.8217   55.2450 H   0  0  0  0  0  0  0  0  0  0  0  0
   72.1524   20.1698   53.9201 H   0  0  0  0  0  0  0  0  0  0  0  0
   73.6627   22.6525   55.1800 H   0  0  0  0  0  0  0  0  0  0  0  0
   72.0072   22.9555   55.7327 H   0  0  0  0  0  0  0  0  0  0  0  0
   72.7603   25.0903   55.9148 H   0  0  0  0  0  0  0  0  0  0  0  0
   72.3074   25.2150   54.2301 H   0  0  0  0  0  0  0  0  0  0  0  0
   75.1210   24.5737   55.3080 H   0  0  0  0  0  0  0  0  0  0  0  0
   74.5706   26.1995   54.8653 H   0  0  0  0  0  0  0  0  0  0  0  0
   73.1839   25.4690   52.1613 H   0  0  0  0  0  0  0  0  0  0  0  0
   74.3494   26.7954   52.4586 H   0  0  0  0  0  0  0  0  0  0  0  0
   74.7469   24.4768   50.4437 H   0  0  0  0  0  0  0  0  0  0  0  0
   74.4290   26.1707   50.0491 H   0  0  0  0  0  0  0  0  0  0  0  0
   76.7658   23.8462   51.3822 H   0  0  0  0  0  0  0  0  0  0  0  0
   78.0168   25.0652   51.6601 H   0  0  0  0  0  0  0  0  0  0  0  0
   76.9113   24.3735   53.8320 H   0  0  0  0  0  0  0  0  0  0  0  0
   76.6748   26.1183   53.4810 H   0  0  0  0  0  0  0  0  0  0  0  0
   68.4419   19.6865   46.2339 H   0  0  0  0  0  0  0  0  0  0  0  0
   68.4649   18.5894   47.6238 H   0  0  0  0  0  0  0  0  0  0  0  0
   69.9921   19.1560   46.9054 H   0  0  0  0  0  0  0  0  0  0  0  0
   68.6894   24.7691   49.0270 H   0  0  0  0  0  0  0  0  0  0  0  0
   67.0951   24.0934   49.4353 H   0  0  0  0  0  0  0  0  0  0  0  0
   67.6137   24.1963   47.7443 H   0  0  0  0  0  0  0  0  0  0  0  0
   74.7738   23.9375   52.9685 H   0  0  0  0  0  0  0  0  0  0  0  0
  1  2  1  0
  1  5  1  0
  1  6  2  0
  2  3  2  0
  2  7  1  0
  3  4  1  0
  3  8  1  0
  4  5  1  0
  4 15  1  0
  4 35  1  0
  5 21  1  0
  8  9  1  0
  8 10  2  0
  9 11  1  0
  9 14  2  0
 11 12  1  0
 12 13  2  0
 12 30  1  0
 13 14  1  0
 14 31  1  0
 15 16  2  0
 15 20  1  0
 16 17  1  0
 16 36  1  0
 17 18  2  0
 17 37  1  0
 18 19  1  0
 18 38  1  0
 19 20  2  0
 19 32  1  0
 20 39  1  0
 21 22  1  0
 21 40  1  0
 21 41  1  0
 22 23  1  0
 22 42  1  0
 22 43  1  0
 23 24  1  0
 23 44  1  0
 23 45  1  0
 24 25  1  0
 24 29  1  0
 24 60  1  0
 25 26  1  0
 25 46  1  0
 25 47  1  0
 26 27  1  0
 26 48  1  0
 26 49  1  0
 27 28  1  0
 28 29  1  0
 28 50  1  0
 28 51  1  0
 29 52  1  0
 29 53  1  0
 30 54  1  0
 30 55  1  0
 30 56  1  0
 31 57  1  0
 31 58  1  0
 31 59  1  0
 32 33  2  0
 32 34  1  0
M  CHG  4   7  -1  24   1  32   1  34  -1
A    1
0.42044935
A    2
0.23435907
A    3
-0.18988238
A    4
0.04573888
A    5
-0.19882053
A    6
-0.46639904
A    7
-0.4013695
A    8
0.4160788
A    9
-0.19336784
A   10
-0.47587076
A   11
0.045952193
A   12
0.28454107
A   13
-0.487087
A   14
0.29831424
A   15
0.068872906
A   16
-0.13449773
A   17
-0.09416347
A   18
-0.10971436
A   19
0.032913126
A   20
-0.18921188
A   21
-0.045947332
A   22
-0.15080297
A   23
-0.08098905
A   24
-0.052757252
A   25
-0.12293748
A   26
0.017333927
A   27
-0.31689557
A   28
0.024691924
A   29
-0.13952266
A   30
-0.46476194
A   31
-0.40844905
A   32
0.55205184
A   33
-0.3941942
A   34
-0.35787028
A   35
0.07960203
A   36
0.1337404
A   37
0.14434338
A   38
0.14945975
A   39
0.14421746
A   40
0.07138759
A   41
0.08133473
A   42
0.08931966
A   43
0.09477836
A   44
0.08953764
A   45
0.09665806
A   46
0.10746865
A   47
0.09101444
A   48
0.07865251
A   49
0.08845786
A   50
0.076396
A   51
0.07675548
A   52
0.1013127
A   53
0.098258145
A   54
0.14232077
A   55
0.14475417
A   56
0.13777411
A   57
0.13174012
A   58
0.13403021
A   59
0.12374526
A   60
0.3271554
M  END
>  <Name>  (80) 
ligand_111

>  <IC50 (nM)>  (80) 
101380

>  <charge>  (80) 
0

$$$$
ligand_35
     RDKit          3D

 51 54  0  0  0  0  0  0  0  0999 V2000
   71.1648   11.4997   56.2969 C   0  0  0  0  0  0  0  0  0  0  0  0
   71.5693   10.1629   56.1742 C   0  0  0  0  0  0  0  0  0  0  0  0
   73.1588   10.7974   54.4742 C   0  0  0  0  0  0  0  0  0  0  0  0
   72.7563   12.1311   54.6003 C   0  0  0  0  0  0  0  0  0  0  0  0
   71.7540   12.4932   55.5111 C   0  0  0  0  0  0  0  0  0  0  0  0
   71.3932   13.8533   55.5510 N   0  0  0  0  0  0  0  0  0  0  0  0
   70.4205   14.4622   56.3270 C   0  0  0  0  0  0  0  0  0  0  0  0
   69.7434   13.9112   57.1919 O   0  0  0  0  0  0  0  0  0  0  0  0
   70.1844   15.9181   55.9728 C   0  0  0  0  0  0  0  0  0  0  0  0
   71.6599   16.9151   56.3092 S   0  0  0  0  0  0  0  0  0  0  0  0
   70.9482   18.4760   55.8878 C   0  0  0  0  0  0  0  0  0  0  0  0
   70.1637   20.5253   56.5368 C   0  0  0  0  0  0  0  0  0  0  0  0
   69.9929   19.8296   54.3292 C   0  0  0  0  0  0  0  0  0  0  0  0
   69.7472   20.8120   55.2627 C   0  0  0  0  0  0  0  0  0  0  0  0
   70.7712   19.3731   56.8684 N   0  0  0  0  0  0  0  0  0  0  0  0
   70.5937   18.6589   54.6104 N   0  0  0  0  0  0  0  0  0  0  0  0
   69.6488   20.0363   52.9320 C   0  0  0  0  0  0  0  0  0  0  0  0
   68.5274   19.4651   52.3604 C   0  0  0  0  0  0  0  0  0  0  0  0
   70.4293   20.7979   51.9801 C   0  0  0  0  0  0  0  0  0  0  0  0
   69.7767   20.8854   50.7533 C   0  0  0  0  0  0  0  0  0  0  0  0
   68.3457   19.9385   50.7322 S   0  0  0  0  0  0  0  0  0  0  0  0
   67.3508   18.3985   53.1344 S   0  0  0  0  0  0  0  0  0  0  0  0
   67.8797   16.8096   52.4494 C   0  0  0  0  0  0  0  0  0  0  0  0
   71.7603   21.4063   52.3152 C   0  0  0  0  0  0  0  0  0  0  0  0
   70.1400   21.6416   49.5773 C   0  0  0  0  0  0  0  0  0  0  0  0
   70.3566   22.1605   47.4213 C   0  0  0  0  0  0  0  0  0  0  0  0
   70.8727   23.3120   47.9780 C   0  0  0  0  0  0  0  0  0  0  0  0
   70.8029   23.2292   49.6822 S   0  0  0  0  0  0  0  0  0  0  0  0
   69.9342   21.2168   48.3444 N   0  0  0  0  0  0  0  0  0  0  0  0
   70.2131   21.8594   45.9735 C   0  0  0  0  0  0  0  0  0  0  0  0
   72.5625    9.8163   55.2619 C   0  0  0  0  0  0  0  0  0  0  0  0
   73.0516    8.1721   55.1039 Cl  0  0  0  0  0  0  0  0  0  0  0  0
   70.3844   11.7274   57.0170 H   0  0  0  0  0  0  0  0  0  0  0  0
   71.0999    9.4003   56.7918 H   0  0  0  0  0  0  0  0  0  0  0  0
   73.9309   10.5324   53.7572 H   0  0  0  0  0  0  0  0  0  0  0  0
   73.2285   12.8793   53.9668 H   0  0  0  0  0  0  0  0  0  0  0  0
   71.9150   14.4736   54.9411 H   0  0  0  0  0  0  0  0  0  0  0  0
   69.9156   15.9757   54.9131 H   0  0  0  0  0  0  0  0  0  0  0  0
   69.3419   16.2891   56.5663 H   0  0  0  0  0  0  0  0  0  0  0  0
   70.0185   21.2231   57.3562 H   0  0  0  0  0  0  0  0  0  0  0  0
   69.2622   21.7447   55.0133 H   0  0  0  0  0  0  0  0  0  0  0  0
   67.3013   16.0077   52.9161 H   0  0  0  0  0  0  0  0  0  0  0  0
   68.9401   16.6361   52.6514 H   0  0  0  0  0  0  0  0  0  0  0  0
   67.7074   16.7783   51.3703 H   0  0  0  0  0  0  0  0  0  0  0  0
   72.4430   21.3614   51.4609 H   0  0  0  0  0  0  0  0  0  0  0  0
   72.2532   20.8706   53.1330 H   0  0  0  0  0  0  0  0  0  0  0  0
   71.6351   22.4488   52.6234 H   0  0  0  0  0  0  0  0  0  0  0  0
   71.2661   24.1841   47.4789 H   0  0  0  0  0  0  0  0  0  0  0  0
   70.7599   22.5823   45.3600 H   0  0  0  0  0  0  0  0  0  0  0  0
   69.1578   21.8908   45.6857 H   0  0  0  0  0  0  0  0  0  0  0  0
   70.6037   20.8615   45.7518 H   0  0  0  0  0  0  0  0  0  0  0  0
  1  2  2  0
  1  5  1  0
  1 33  1  0
  2 31  1  0
  2 34  1  0
  3  4  1  0
  3 31  2  0
  3 35  1  0
  4  5  2  0
  4 36  1  0
  5  6  1  0
  6  7  1  0
  6 37  1  0
  7  8  2  0
  7  9  1  0
  9 10  1  0
  9 38  1  0
  9 39  1  0
 10 11  1  0
 11 15  2  0
 11 16  1  0
 12 14  2  0
 12 15  1  0
 12 40  1  0
 13 14  1  0
 13 16  2  0
 13 17  1  0
 14 41  1  0
 17 18  2  0
 17 19  1  0
 18 21  1  0
 18 22  1  0
 19 20  2  0
 19 24  1  0
 20 21  1  0
 20 25  1  0
 22 23  1  0
 23 42  1  0
 23 43  1  0
 23 44  1  0
 24 45  1  0
 24 46  1  0
 24 47  1  0
 25 28  1  0
 25 29  2  0
 26 27  2  0
 26 29  1  0
 26 30  1  0
 27 28  1  0
 27 48  1  0
 30 49  1  0
 30 50  1  0
 30 51  1  0
 31 32  1  0
A    1
-0.21333584
A    2
-0.13301876
A    3
-0.13342981
A    4
-0.2019625
A    5
0.2876571
A    6
-0.52977693
A    7
0.62782705
A    8
-0.51293397
A    9
-0.29753712
A   10
-0.046976473
A   11
0.37464797
A   12
0.11081172
A   13
0.28245643
A   14
-0.26291925
A   15
-0.44041476
A   16
-0.43554935
A   17
-0.090387076
A   18
-0.054572657
A   19
0.078598075
A   20
-0.13007545
A   21
0.08356958
A   22
0.0160611
A   23
-0.37804574
A   24
-0.41016322
A   25
0.18485327
A   26
0.33332673
A   27
-0.28791794
A   28
0.08001707
A   29
-0.406813
A   30
-0.43580955
A   31
0.14482036
A   32
-0.10189905
A   33
0.14485899
A   34
0.14824782
A   35
0.15760385
A   36
0.15169023
A   37
0.32764378
A   38
0.1647867
A   39
0.15526134
A   40
0.12214742
A   41
0.15828703
A   42
0.14853756
A   43
0.14523648
A   44
0.14265187
A   45
0.11173344
A   46
0.12411277
A   47
0.111475945
A   48
0.18861742
A   49
0.1383383
A   50
0.12799433
A   51
0.12966682
M  END
>  <Name>  (81) 
ligand_35

>  <IC50 (nM)>  (81) 
11000

>  <charge>  (81) 
0

$$$$
ligand_80
     RDKit          3D

 36 38  0  0  0  0  0  0  0  0999 V2000
   68.4863   15.8742   54.6732 C   0  0  0  0  0  0  0  0  0  0  0  0
   69.3987   14.6799   54.6199 C   0  0  0  0  0  0  0  0  0  0  0  0
   70.5052   12.4843   55.0260 C   0  0  0  0  0  0  0  0  0  0  0  0
   71.1124   13.2234   54.0232 C   0  0  0  0  0  0  0  0  0  0  0  0
   70.4813   14.4796   53.7902 C   0  0  0  0  0  0  0  0  0  0  0  0
   69.1649   13.3512   55.6680 S   0  0  0  0  0  0  0  0  0  0  0  0
   70.9118   11.1724   55.5000 C   0  0  0  0  0  0  0  0  0  0  0  0
   72.0294   10.4583   55.0913 C   0  0  0  0  0  0  0  0  0  0  0  0
   72.1599    9.1995   55.7415 C   0  0  0  0  0  0  0  0  0  0  0  0
   71.1413    8.9806   56.6384 C   0  0  0  0  0  0  0  0  0  0  0  0
   70.0325   10.2735   56.6774 S   0  0  0  0  0  0  0  0  0  0  0  0
   68.7383   18.3708   54.9678 C   0  0  0  0  0  0  0  0  0  0  0  0
   68.5698   20.6024   54.8024 C   0  0  0  0  0  0  0  0  0  0  0  0
   69.4643   19.5497   55.1187 C   0  0  0  0  0  0  0  0  0  0  0  0
   69.1539   17.0811   55.1275 N   0  0  0  0  0  0  0  0  0  0  0  0
   67.4643   18.7933   54.6370 N   0  0  0  0  0  0  0  0  0  0  0  0
   67.3576   20.1319   54.4905 N   0  0  0  0  0  0  0  0  0  0  0  0
   66.2532   18.0189   54.4990 C   0  0  0  0  0  0  0  0  0  0  0  0
   68.8094   22.0691   54.7772 C   0  0  0  0  0  0  0  0  0  0  0  0
   70.8464   19.6620   55.4959 N   0  0  0  0  0  0  0  0  0  0  0  0
   71.3238   20.8042   55.5620 O   0  0  0  0  0  0  0  0  0  0  0  0
   71.4665   18.6120   55.7281 O   0  0  0  0  0  0  0  0  0  0  0  0
   67.6318   15.6647   55.3257 H   0  0  0  0  0  0  0  0  0  0  0  0
   68.0990   16.0242   53.6581 H   0  0  0  0  0  0  0  0  0  0  0  0
   71.9801   12.8872   53.4694 H   0  0  0  0  0  0  0  0  0  0  0  0
   70.8097   15.2028   53.0524 H   0  0  0  0  0  0  0  0  0  0  0  0
   72.7307   10.8325   54.3562 H   0  0  0  0  0  0  0  0  0  0  0  0
   72.9564    8.4819   55.5661 H   0  0  0  0  0  0  0  0  0  0  0  0
   70.9955    8.1103   57.2667 H   0  0  0  0  0  0  0  0  0  0  0  0
   70.1017   16.9147   55.4833 H   0  0  0  0  0  0  0  0  0  0  0  0
   65.3929   18.6930   54.4495 H   0  0  0  0  0  0  0  0  0  0  0  0
   66.1432   17.3745   55.3732 H   0  0  0  0  0  0  0  0  0  0  0  0
   66.3113   17.4418   53.5744 H   0  0  0  0  0  0  0  0  0  0  0  0
   67.9052   22.6178   54.4921 H   0  0  0  0  0  0  0  0  0  0  0  0
   69.5909   22.3190   54.0527 H   0  0  0  0  0  0  0  0  0  0  0  0
   69.1155   22.4259   55.7657 H   0  0  0  0  0  0  0  0  0  0  0  0
  1  2  1  0
  1 15  1  0
  1 23  1  0
  1 24  1  0
  2  5  2  0
  2  6  1  0
  3  4  2  0
  3  6  1  0
  3  7  1  0
  4  5  1  0
  4 25  1  0
  5 26  1  0
  7  8  2  0
  7 11  1  0
  8  9  1  0
  8 27  1  0
  9 10  2  0
  9 28  1  0
 10 11  1  0
 10 29  1  0
 12 14  2  0
 12 15  1  0
 12 16  1  0
 13 14  1  0
 13 17  2  0
 13 19  1  0
 14 20  1  0
 15 30  1  0
 16 17  1  0
 16 18  1  0
 18 31  1  0
 18 32  1  0
 18 33  1  0
 19 34  1  0
 19 35  1  0
 19 36  1  0
 20 21  2  0
 20 22  1  0
M  CHG  2  20   1  22  -1
A    1
-0.038343675
A    2
0.01975365
A    3
-0.021733318
A    4
-0.13628311
A    5
-0.1644862
A    6
0.029139053
A    7
-0.010205645
A    8
-0.1559232
A    9
-0.10534434
A   10
-0.1715617
A   11
0.09647279
A   12
0.251793
A   13
0.24349022
A   14
-0.24837779
A   15
-0.3899372
A   16
0.16262765
A   17
-0.41791728
A   18
-0.30588737
A   19
-0.41894332
A   20
0.5965269
A   21
-0.4255054
A   22
-0.39733532
A   23
0.097737975
A   24
0.0947947
A   25
0.14708307
A   26
0.15318371
A   27
0.14748089
A   28
0.14968634
A   29
0.16242759
A   30
0.306456
A   31
0.11602429
A   32
0.11851573
A   33
0.12308295
A   34
0.13207552
A   35
0.12425304
A   36
0.13517973
M  END
>  <Name>  (82) 
ligand_80

>  <IC50 (nM)>  (82) 
20000

>  <charge>  (82) 
0

$$$$
ligand_51
     RDKit          3D

 60 62  0  0  0  0  0  0  0  0999 V2000
   69.2543   14.5665   55.5026 C   0  0  0  0  0  0  0  0  0  0  0  0
   68.5745   15.2594   54.4973 C   0  0  0  0  0  0  0  0  0  0  0  0
   68.5534   16.6686   54.4617 C   0  0  0  0  0  0  0  0  0  0  0  0
   69.2463   17.4054   55.4461 C   0  0  0  0  0  0  0  0  0  0  0  0
   69.9276   16.7001   56.4443 C   0  0  0  0  0  0  0  0  0  0  0  0
   69.9352   15.3011   56.4720 C   0  0  0  0  0  0  0  0  0  0  0  0
   69.7962   19.7158   56.2900 C   0  0  0  0  0  0  0  0  0  0  0  0
   69.2266   18.8209   55.3979 N   0  0  0  0  0  0  0  0  0  0  0  0
   70.4721   19.4261   57.2785 O   0  0  0  0  0  0  0  0  0  0  0  0
   69.4595   21.1708   55.9974 C   0  0  0  0  0  0  0  0  0  0  0  0
   70.5937   21.8865   54.7856 S   0  0  0  0  0  0  0  0  0  0  0  0
   69.9352   21.4130   53.2338 C   0  0  0  0  0  0  0  0  0  0  0  0
   68.9298   20.7360   50.8623 C   0  0  0  0  0  0  0  0  0  0  0  0
   70.1685   21.2465   50.9766 C   0  0  0  0  0  0  0  0  0  0  0  0
   68.1354   20.5969   52.1148 C   0  0  0  0  0  0  0  0  0  0  0  0
   66.9828   20.1726   52.0392 O   0  0  0  0  0  0  0  0  0  0  0  0
   68.7140   20.9082   53.2734 N   0  0  0  0  0  0  0  0  0  0  0  0
   70.6805   21.6084   52.1980 N   0  0  0  0  0  0  0  0  0  0  0  0
   68.3595   20.3179   49.6304 C   0  0  0  0  0  0  0  0  0  0  0  0
   67.9556   19.9781   48.5934 N   0  0  0  0  0  0  0  0  0  0  0  0
   71.1122   21.4765   49.7986 C   0  0  0  0  0  0  0  0  0  0  0  0
   73.3508   20.8886   48.7634 C   0  0  0  0  0  0  0  0  0  0  0  0
   73.6654   22.3715   48.5887 C   0  0  0  0  0  0  0  0  0  0  0  0
   72.3948   23.2064   48.4592 C   0  0  0  0  0  0  0  0  0  0  0  0
   71.4436   22.9716   49.6315 C   0  0  0  0  0  0  0  0  0  0  0  0
   72.4021   20.6468   49.9370 C   0  0  0  0  0  0  0  0  0  0  0  0
   67.7908   17.3314   53.3468 C   0  0  0  0  0  0  0  0  0  0  0  0
   69.2774   13.0601   55.5209 C   0  0  0  0  0  0  0  0  0  0  0  0
   70.5085   12.5038   54.8021 C   0  0  0  0  0  0  0  0  0  0  0  0
   70.5148   10.9753   54.8169 C   0  0  0  0  0  0  0  0  0  0  0  0
   71.7416   10.4174   54.1135 C   0  0  0  0  0  0  0  0  0  0  0  0
   68.0495   14.6989   53.7258 H   0  0  0  0  0  0  0  0  0  0  0  0
   70.4827   17.2123   57.2224 H   0  0  0  0  0  0  0  0  0  0  0  0
   70.4881   14.7969   57.2588 H   0  0  0  0  0  0  0  0  0  0  0  0
   68.7688   19.2561   54.5937 H   0  0  0  0  0  0  0  0  0  0  0  0
   69.5932   21.7269   56.9326 H   0  0  0  0  0  0  0  0  0  0  0  0
   68.4043   21.2860   55.7324 H   0  0  0  0  0  0  0  0  0  0  0  0
   70.6309   21.1558   48.8662 H   0  0  0  0  0  0  0  0  0  0  0  0
   74.2810   20.3312   48.9212 H   0  0  0  0  0  0  0  0  0  0  0  0
   72.8984   20.5000   47.8426 H   0  0  0  0  0  0  0  0  0  0  0  0
   74.2915   22.5134   47.7006 H   0  0  0  0  0  0  0  0  0  0  0  0
   74.2468   22.7245   49.4493 H   0  0  0  0  0  0  0  0  0  0  0  0
   72.6565   24.2692   48.4047 H   0  0  0  0  0  0  0  0  0  0  0  0
   71.8861   22.9549   47.5204 H   0  0  0  0  0  0  0  0  0  0  0  0
   70.5226   23.5447   49.4690 H   0  0  0  0  0  0  0  0  0  0  0  0
   71.9056   23.3670   50.5454 H   0  0  0  0  0  0  0  0  0  0  0  0
   72.1579   19.5787   49.9896 H   0  0  0  0  0  0  0  0  0  0  0  0
   72.9233   20.8990   50.8695 H   0  0  0  0  0  0  0  0  0  0  0  0
   67.2076   16.6059   52.7692 H   0  0  0  0  0  0  0  0  0  0  0  0
   68.4889   17.8165   52.6595 H   0  0  0  0  0  0  0  0  0  0  0  0
   67.0794   18.0574   53.7512 H   0  0  0  0  0  0  0  0  0  0  0  0
   69.2554   12.7104   56.5608 H   0  0  0  0  0  0  0  0  0  0  0  0
   68.3621   12.6743   55.0541 H   0  0  0  0  0  0  0  0  0  0  0  0
   70.5274   12.8609   53.7644 H   0  0  0  0  0  0  0  0  0  0  0  0
   71.4217   12.8789   55.2812 H   0  0  0  0  0  0  0  0  0  0  0  0
   70.4973   10.6124   55.8511 H   0  0  0  0  0  0  0  0  0  0  0  0
   69.6129   10.5946   54.3238 H   0  0  0  0  0  0  0  0  0  0  0  0
   71.7251    9.3232   54.1320 H   0  0  0  0  0  0  0  0  0  0  0  0
   72.6611   10.7516   54.6048 H   0  0  0  0  0  0  0  0  0  0  0  0
   71.7743   10.7392   53.0677 H   0  0  0  0  0  0  0  0  0  0  0  0
  1  2  2  0
  1  6  1  0
  1 28  1  0
  2  3  1  0
  2 32  1  0
  3  4  2  0
  3 27  1  0
  4  5  1  0
  4  8  1  0
  5  6  2  0
  5 33  1  0
  6 34  1  0
  7  8  1  0
  7  9  2  0
  7 10  1  0
  8 35  1  0
 10 11  1  0
 10 36  1  0
 10 37  1  0
 11 12  1  0
 12 17  1  0
 12 18  2  0
 13 14  2  0
 13 15  1  0
 13 19  1  0
 14 18  1  0
 14 21  1  0
 15 16  2  0
 15 17  1  0
 19 20  3  0
 21 25  1  0
 21 26  1  0
 21 38  1  0
 22 23  1  0
 22 26  1  0
 22 39  1  0
 22 40  1  0
 23 24  1  0
 23 41  1  0
 23 42  1  0
 24 25  1  0
 24 43  1  0
 24 44  1  0
 25 45  1  0
 25 46  1  0
 26 47  1  0
 26 48  1  0
 27 49  1  0
 27 50  1  0
 27 51  1  0
 28 29  1  0
 28 52  1  0
 28 53  1  0
 29 30  1  0
 29 54  1  0
 29 55  1  0
 30 31  1  0
 30 56  1  0
 30 57  1  0
 31 58  1  0
 31 59  1  0
 31 60  1  0
M  CHG  1  17  -1
A    1
0.11786395
A    2
-0.21319439
A    3
0.046603635
A    4
0.19456059
A    5
-0.21645874
A    6
-0.13526775
A    7
0.58207405
A    8
-0.5450397
A    9
-0.5515222
A   10
-0.33476982
A   11
-0.060297176
A   12
0.36250004
A   13
-0.21387649
A   14
0.2823949
A   15
0.5462975
A   16
-0.5404664
A   17
-0.54278064
A   18
-0.472839
A   19
0.27915668
A   20
-0.4711952
A   21
-0.07031976
A   22
-0.12079727
A   23
-0.13250959
A   24
-0.1355617
A   25
-0.16744018
A   26
-0.16379175
A   27
-0.38525844
A   28
-0.20122714
A   29
-0.116205536
A   30
-0.07339367
A   31
-0.3793473
A   32
0.12723193
A   33
0.13936287
A   34
0.13316758
A   35
0.30825153
A   36
0.13958889
A   37
0.12185907
A   38
0.07713163
A   39
0.07312322
A   40
0.07107249
A   41
0.07309398
A   42
0.06897643
A   43
0.066546224
A   44
0.067850344
A   45
0.067831695
A   46
0.07101864
A   47
0.07858626
A   48
0.0842184
A   49
0.120008804
A   50
0.11430398
A   51
0.11126517
A   52
0.08305914
A   53
0.082071714
A   54
0.07421385
A   55
0.070156984
A   56
0.06810136
A   57
0.07138562
A   58
0.09183135
A   59
0.09192468
A   60
0.08487469
M  END
>  <Name>  (83) 
ligand_51

>  <IC50 (nM)>  (83) 
200000

>  <charge>  (83) 
-1

$$$$
ligand_73
     RDKit          3D

 32 34  0  0  0  0  0  0  0  0999 V2000
   68.5622   19.1667   51.8843 C   0  0  0  0  0  0  0  0  0  0  0  0
   69.4267   19.1577   50.8005 C   0  0  0  0  0  0  0  0  0  0  0  0
   68.7216   19.6923   49.6942 C   0  0  0  0  0  0  0  0  0  0  0  0
   67.4729   20.0263   50.1620 C   0  0  0  0  0  0  0  0  0  0  0  0
   67.3507   19.7001   51.4796 O   0  0  0  0  0  0  0  0  0  0  0  0
   66.3846   20.6736   49.5094 C   0  0  0  0  0  0  0  0  0  0  0  0
   65.5336   21.2724   48.9012 C   0  0  0  0  0  0  0  0  0  0  0  0
   64.5749   22.0408   48.1471 C   0  0  0  0  0  0  0  0  0  0  0  0
   64.2869   23.3592   48.5173 C   0  0  0  0  0  0  0  0  0  0  0  0
   63.3761   24.1219   47.7782 C   0  0  0  0  0  0  0  0  0  0  0  0
   62.7449   23.5724   46.6613 C   0  0  0  0  0  0  0  0  0  0  0  0
   63.0260   22.2592   46.2832 C   0  0  0  0  0  0  0  0  0  0  0  0
   63.9389   21.4966   47.0242 C   0  0  0  0  0  0  0  0  0  0  0  0
   68.8215   18.8121   53.2739 C   0  0  0  0  0  0  0  0  0  0  0  0
   69.9160   18.9735   53.8101 O   0  0  0  0  0  0  0  0  0  0  0  0
   67.4066   18.2817   54.1444 S   0  0  0  0  0  0  0  0  0  0  0  0
   67.8757   16.6544   54.5787 C   0  0  0  0  0  0  0  0  0  0  0  0
   68.8565   14.7433   54.7037 C   0  0  0  0  0  0  0  0  0  0  0  0
   68.9163   15.9603   54.0984 N   0  0  0  0  0  0  0  0  0  0  0  0
   67.1620   15.9119   55.4467 N   0  0  0  0  0  0  0  0  0  0  0  0
   67.7665   14.6873   55.5136 N   0  0  0  0  0  0  0  0  0  0  0  0
   69.8323   13.6046   54.5032 C   0  0  0  0  0  0  0  0  0  0  0  0
   69.3647   12.3810   54.9071 F   0  0  0  0  0  0  0  0  0  0  0  0
   70.1848   13.4330   53.1877 F   0  0  0  0  0  0  0  0  0  0  0  0
   71.0132   13.7809   55.1766 F   0  0  0  0  0  0  0  0  0  0  0  0
   70.4512   18.8084   50.8320 H   0  0  0  0  0  0  0  0  0  0  0  0
   69.0905   19.8442   48.6902 H   0  0  0  0  0  0  0  0  0  0  0  0
   64.7690   23.7898   49.3930 H   0  0  0  0  0  0  0  0  0  0  0  0
   63.1637   25.1449   48.0778 H   0  0  0  0  0  0  0  0  0  0  0  0
   62.0350   24.1662   46.0854 H   0  0  0  0  0  0  0  0  0  0  0  0
   62.5352   21.8304   45.4122 H   0  0  0  0  0  0  0  0  0  0  0  0
   64.1490   20.4695   46.7321 H   0  0  0  0  0  0  0  0  0  0  0  0
  1  2  2  0
  1  5  1  0
  1 14  1  0
  2  3  1  0
  2 26  1  0
  3  4  2  0
  3 27  1  0
  4  5  1  0
  4  6  1  0
  6  7  3  0
  7  8  1  0
  8  9  2  0
  8 13  1  0
  9 10  1  0
  9 28  1  0
 10 11  2  0
 10 29  1  0
 11 12  1  0
 11 30  1  0
 12 13  2  0
 12 31  1  0
 13 32  1  0
 14 15  2  0
 14 16  1  0
 16 17  1  0
 17 19  2  0
 17 20  1  0
 18 19  1  0
 18 21  2  0
 18 22  1  0
 20 21  1  0
 22 23  1  0
 22 24  1  0
 22 25  1  0
M  CHG  1  20  -1
A    1
0.09464367
A    2
-0.19047481
A    3
-0.27524248
A    4
0.2556792
A    5
-0.20514818
A    6
-0.1749971
A    7
-0.06598402
A    8
0.13327256
A    9
-0.15986258
A   10
-0.10183148
A   11
-0.108054854
A   12
-0.092359245
A   13
-0.15796852
A   14
0.32195628
A   15
-0.40035665
A   16
-0.09681027
A   17
0.313999
A   18
0.11884505
A   19
-0.5153235
A   20
-0.33805764
A   21
-0.159706
A   22
0.54587525
A   23
-0.22360483
A   24
-0.21895286
A   25
-0.23579389
A   26
0.1728894
A   27
0.16439874
A   28
0.123948
A   29
0.120338164
A   30
0.12029935
A   31
0.11686593
A   32
0.117518224
M  END
>  <Name>  (84) 
ligand_73

>  <IC50 (nM)>  (84) 
3000

>  <charge>  (84) 
-1

$$$$
ligand_67
     RDKit          3D

 27 28  0  0  0  0  0  0  0  0999 V2000
   72.0143   20.5607   55.5830 C   0  0  0  0  0  0  0  0  0  0  0  0
   73.1205   21.1395   54.9574 C   0  0  0  0  0  0  0  0  0  0  0  0
   72.9337   22.0575   53.9239 C   0  0  0  0  0  0  0  0  0  0  0  0
   71.6470   22.3975   53.5026 C   0  0  0  0  0  0  0  0  0  0  0  0
   70.5358   21.8155   54.1183 C   0  0  0  0  0  0  0  0  0  0  0  0
   70.7256   20.8878   55.1497 C   0  0  0  0  0  0  0  0  0  0  0  0
   69.3131   20.2145   55.9926 S   0  0  0  0  0  0  0  0  0  0  0  0
   68.2965   21.2549   55.9347 O   0  0  0  0  0  0  0  0  0  0  0  0
   69.7375   19.7126   57.2866 O   0  0  0  0  0  0  0  0  0  0  0  0
   68.6408   18.8359   55.1206 C   0  0  0  0  0  0  0  0  0  0  0  0
   67.2378   18.7072   55.0616 C   0  0  0  0  0  0  0  0  0  0  0  0
   67.4838   16.6650   53.8279 C   0  0  0  0  0  0  0  0  0  0  0  0
   66.6570   17.6208   54.4135 C   0  0  0  0  0  0  0  0  0  0  0  0
   68.8671   16.8070   53.8856 C   0  0  0  0  0  0  0  0  0  0  0  0
   66.9088   15.5011   53.1552 N   0  0  0  0  0  0  0  0  0  0  0  0
   67.6909   14.6831   52.6551 O   0  0  0  0  0  0  0  0  0  0  0  0
   65.6746   15.4054   53.1326 O   0  0  0  0  0  0  0  0  0  0  0  0
   74.2988   22.7902   53.1736 Cl  0  0  0  0  0  0  0  0  0  0  0  0
   69.4526   17.8892   54.5286 N   0  0  0  0  0  0  0  0  0  0  0  0
   70.7136   17.9705   54.5471 O   0  0  0  0  0  0  0  0  0  0  0  0
   72.1668   19.8460   56.3896 H   0  0  0  0  0  0  0  0  0  0  0  0
   74.1210   20.8688   55.2828 H   0  0  0  0  0  0  0  0  0  0  0  0
   71.5055   23.1223   52.7048 H   0  0  0  0  0  0  0  0  0  0  0  0
   69.5369   22.1061   53.8012 H   0  0  0  0  0  0  0  0  0  0  0  0
   66.5959   19.4504   55.5362 H   0  0  0  0  0  0  0  0  0  0  0  0
   65.5714   17.5331   54.3835 H   0  0  0  0  0  0  0  0  0  0  0  0
   69.5914   16.1233   53.4640 H   0  0  0  0  0  0  0  0  0  0  0  0
  1  2  2  0
  1  6  1  0
  1 21  1  0
  2  3  1  0
  2 22  1  0
  3  4  2  0
  3 18  1  0
  4  5  1  0
  4 23  1  0
  5  6  2  0
  5 24  1  0
  6  7  1  0
  7  8  2  0
  7  9  2  0
  7 10  1  0
 10 11  2  0
 10 19  1  0
 11 13  1  0
 11 25  1  0
 12 13  2  0
 12 14  1  0
 12 15  1  0
 13 26  1  0
 14 19  2  0
 14 27  1  0
 15 16  1  0
 15 17  2  0
 19 20  1  0
M  CHG  4  15   1  16  -1  19   1  20  -1
A    1
-0.07915959
A    2
-0.17719367
A    3
0.16573775
A    4
-0.1684752
A    5
-0.073704995
A    6
-0.11921681
A    7
1.0575718
A    8
-0.5258695
A    9
-0.50251293
A   10
-0.11862508
A   11
-0.09087613
A   12
0.028511403
A   13
-0.13566466
A   14
-0.10590448
A   15
0.61462796
A   16
-0.34496188
A   17
-0.38088053
A   18
-0.08690571
A   19
0.3724949
A   20
-0.40636227
A   21
0.13638087
A   22
0.14484403
A   23
0.15150169
A   24
0.1446861
A   25
0.16830674
A   26
0.16948465
A   27
0.16216543
M  END
>  <Name>  (85) 
ligand_67

>  <IC50 (nM)>  (85) 
15000

>  <charge>  (85) 
0

$$$$
ligand_100
     RDKit          3D

 36 37  0  0  0  0  0  0  0  0999 V2000
   66.1621   14.6227   53.1197 C   0  0  0  0  0  0  0  0  0  0  0  0
   66.6746   15.8321   52.3839 C   0  0  0  0  0  0  0  0  0  0  0  0
   67.9204   16.4933   52.9076 C   0  0  0  0  0  0  0  0  0  0  0  0
   65.1518   13.7619   52.3460 C   0  0  0  0  0  0  0  0  0  0  0  0
   68.1272   17.9404   52.5901 C   0  0  0  0  0  0  0  0  0  0  0  0
   67.5694   18.5456   51.4481 C   0  0  0  0  0  0  0  0  0  0  0  0
   64.7330   14.2898   51.2603 O   0  0  0  0  0  0  0  0  0  0  0  0
   66.4094   14.3209   54.2861 O   0  0  0  0  0  0  0  0  0  0  0  0
   68.8127   15.9113   53.5186 O   0  0  0  0  0  0  0  0  0  0  0  0
   67.3259   20.5329   50.0228 N   0  0  0  0  0  0  0  0  0  0  0  0
   67.8184   19.8924   51.1446 C   0  0  0  0  0  0  0  0  0  0  0  0
   64.8233   12.6292   52.8254 O   0  0  0  0  0  0  0  0  0  0  0  0
   66.4663   19.9205   49.0293 C   0  0  0  0  0  0  0  0  0  0  0  0
   66.2358   20.8878   47.8854 C   0  0  0  0  0  0  0  0  0  0  0  0
   68.9438   18.6888   53.4433 C   0  0  0  0  0  0  0  0  0  0  0  0
   69.1895   20.0296   53.1663 C   0  0  0  0  0  0  0  0  0  0  0  0
   68.6316   20.6187   52.0281 C   0  0  0  0  0  0  0  0  0  0  0  0
   67.0698   20.8636   46.7550 C   0  0  0  0  0  0  0  0  0  0  0  0
   65.2013   21.8367   47.9442 C   0  0  0  0  0  0  0  0  0  0  0  0
   64.9768   22.7090   46.8776 C   0  0  0  0  0  0  0  0  0  0  0  0
   66.8444   21.7338   45.6883 C   0  0  0  0  0  0  0  0  0  0  0  0
   65.7879   22.6401   45.7477 C   0  0  0  0  0  0  0  0  0  0  0  0
   66.8987   15.5409   51.3511 H   0  0  0  0  0  0  0  0  0  0  0  0
   65.8533   16.5579   52.3877 H   0  0  0  0  0  0  0  0  0  0  0  0
   66.9574   17.9501   50.7776 H   0  0  0  0  0  0  0  0  0  0  0  0
   67.5569   21.5088   49.8835 H   0  0  0  0  0  0  0  0  0  0  0  0
   66.9198   19.0033   48.6336 H   0  0  0  0  0  0  0  0  0  0  0  0
   65.5023   19.6426   49.4726 H   0  0  0  0  0  0  0  0  0  0  0  0
   69.3887   18.2237   54.3221 H   0  0  0  0  0  0  0  0  0  0  0  0
   69.8213   20.6135   53.8299 H   0  0  0  0  0  0  0  0  0  0  0  0
   68.8471   21.6657   51.8284 H   0  0  0  0  0  0  0  0  0  0  0  0
   67.8892   20.1489   46.7036 H   0  0  0  0  0  0  0  0  0  0  0  0
   64.5591   21.8831   48.8218 H   0  0  0  0  0  0  0  0  0  0  0  0
   64.1734   23.4413   46.9203 H   0  0  0  0  0  0  0  0  0  0  0  0
   67.4865   21.7109   44.8096 H   0  0  0  0  0  0  0  0  0  0  0  0
   65.5999   23.3035   44.9092 H   0  0  0  0  0  0  0  0  0  0  0  0
  1  2  1  0
  1  4  1  0
  1  8  2  0
  2  3  1  0
  2 23  1  0
  2 24  1  0
  3  5  1  0
  3  9  2  0
  4  7  2  0
  4 12  1  0
  5  6  2  0
  5 15  1  0
  6 11  1  0
  6 25  1  0
 10 11  1  0
 10 13  1  0
 10 26  1  0
 11 17  2  0
 13 14  1  0
 13 27  1  0
 13 28  1  0
 14 18  2  0
 14 19  1  0
 15 16  2  0
 15 29  1  0
 16 17  1  0
 16 30  1  0
 17 31  1  0
 18 21  1  0
 18 32  1  0
 19 20  2  0
 19 33  1  0
 20 22  1  0
 20 34  1  0
 21 22  2  0
 21 35  1  0
 22 36  1  0
M  CHG  1  12  -1
A    1
0.34114346
A    2
-0.41464043
A    3
0.45753527
A    4
0.48959967
A    5
-0.012740091
A    6
-0.31561524
A    7
-0.55444765
A    8
-0.45481512
A    9
-0.5300526
A   10
-0.44231665
A   11
0.2656506
A   12
-0.5375398
A   13
-0.05416572
A   14
0.07118053
A   15
-0.15104097
A   16
-0.08509306
A   17
-0.27026755
A   18
-0.15743846
A   19
-0.15983054
A   20
-0.10967315
A   21
-0.10788676
A   22
-0.0992179
A   23
0.14823847
A   24
0.14864986
A   25
0.13394743
A   26
0.27264312
A   27
0.084206045
A   28
0.075941026
A   29
0.12532072
A   30
0.120111085
A   31
0.121480204
A   32
0.12660143
A   33
0.119050145
A   34
0.11499663
A   35
0.12312518
A   36
0.1173606
M  END
>  <Name>  (86) 
ligand_100

>  <IC50 (nM)>  (86) 
5400

>  <charge>  (86) 
-1

$$$$
ligand_75
     RDKit          3D

 42 44  0  0  0  0  0  0  0  0999 V2000
   70.5025   20.6996   55.3217 C   0  0  0  0  0  0  0  0  0  0  0  0
   71.7798   20.2904   54.9889 C   0  0  0  0  0  0  0  0  0  0  0  0
   72.1066   20.5790   53.6336 C   0  0  0  0  0  0  0  0  0  0  0  0
   71.0690   21.2060   52.9795 C   0  0  0  0  0  0  0  0  0  0  0  0
   69.7125   21.4457   53.9981 S   0  0  0  0  0  0  0  0  0  0  0  0
   69.5737   20.5830   56.8812 S   0  0  0  0  0  0  0  0  0  0  0  0
   69.3187   21.9985   57.1453 O   0  0  0  0  0  0  0  0  0  0  0  0
   70.5768   19.9756   57.7564 O   0  0  0  0  0  0  0  0  0  0  0  0
   68.2795   19.7209   56.5074 N   0  0  0  0  0  0  0  0  0  0  0  0
   68.4418   18.4345   56.1116 C   0  0  0  0  0  0  0  0  0  0  0  0
   69.0386   16.3541   55.6364 C   0  0  0  0  0  0  0  0  0  0  0  0
   69.4854   17.5485   56.2509 C   0  0  0  0  0  0  0  0  0  0  0  0
   67.4610   17.7414   55.4657 N   0  0  0  0  0  0  0  0  0  0  0  0
   67.7948   16.4758   55.1521 N   0  0  0  0  0  0  0  0  0  0  0  0
   69.8203   15.1214   55.5341 C   0  0  0  0  0  0  0  0  0  0  0  0
   69.4526   13.9236   54.9562 C   0  0  0  0  0  0  0  0  0  0  0  0
   71.1374   14.9314   56.0276 C   0  0  0  0  0  0  0  0  0  0  0  0
   71.4965   13.6328   55.7213 C   0  0  0  0  0  0  0  0  0  0  0  0
   70.4662   13.0170   55.0666 O   0  0  0  0  0  0  0  0  0  0  0  0
   68.2279   13.4585   54.2747 C   0  0  0  0  0  0  0  0  0  0  0  0
   72.7300   12.8002   55.9531 C   0  0  0  0  0  0  0  0  0  0  0  0
   72.3755   11.5820   56.8245 C   0  0  0  0  0  0  0  0  0  0  0  0
   73.8205   13.6155   56.6725 C   0  0  0  0  0  0  0  0  0  0  0  0
   73.2913   12.3178   54.6032 C   0  0  0  0  0  0  0  0  0  0  0  0
   72.4285   19.8033   55.7055 H   0  0  0  0  0  0  0  0  0  0  0  0
   73.0520   20.3380   53.1663 H   0  0  0  0  0  0  0  0  0  0  0  0
   71.0353   21.5386   51.9526 H   0  0  0  0  0  0  0  0  0  0  0  0
   70.4364   17.7253   56.7321 H   0  0  0  0  0  0  0  0  0  0  0  0
   66.5452   18.0858   55.2049 H   0  0  0  0  0  0  0  0  0  0  0  0
   71.7499   15.6558   56.5457 H   0  0  0  0  0  0  0  0  0  0  0  0
   68.3276   12.4193   53.9451 H   0  0  0  0  0  0  0  0  0  0  0  0
   68.0214   14.0714   53.3920 H   0  0  0  0  0  0  0  0  0  0  0  0
   67.3675   13.5150   54.9484 H   0  0  0  0  0  0  0  0  0  0  0  0
   71.6266   10.9439   56.3410 H   0  0  0  0  0  0  0  0  0  0  0  0
   71.9641   11.8924   57.7924 H   0  0  0  0  0  0  0  0  0  0  0  0
   73.2591   10.9636   57.0195 H   0  0  0  0  0  0  0  0  0  0  0  0
   74.1171   14.4938   56.0869 H   0  0  0  0  0  0  0  0  0  0  0  0
   74.7201   13.0120   56.8400 H   0  0  0  0  0  0  0  0  0  0  0  0
   73.4761   13.9712   57.6509 H   0  0  0  0  0  0  0  0  0  0  0  0
   73.5394   13.1637   53.9512 H   0  0  0  0  0  0  0  0  0  0  0  0
   72.5689   11.6922   54.0658 H   0  0  0  0  0  0  0  0  0  0  0  0
   74.2018   11.7237   54.7420 H   0  0  0  0  0  0  0  0  0  0  0  0
  1  2  2  0
  1  5  1  0
  1  6  1  0
  2  3  1  0
  2 25  1  0
  3  4  2  0
  3 26  1  0
  4  5  1  0
  4 27  1  0
  6  7  2  0
  6  8  2  0
  6  9  1  0
  9 10  1  0
 10 12  2  0
 10 13  1  0
 11 12  1  0
 11 14  2  0
 11 15  1  0
 12 28  1  0
 13 14  1  0
 13 29  1  0
 15 16  2  0
 15 17  1  0
 16 19  1  0
 16 20  1  0
 17 18  2  0
 17 30  1  0
 18 19  1  0
 18 21  1  0
 20 31  1  0
 20 32  1  0
 20 33  1  0
 21 22  1  0
 21 23  1  0
 21 24  1  0
 22 34  1  0
 22 35  1  0
 22 36  1  0
 23 37  1  0
 23 38  1  0
 23 39  1  0
 24 40  1  0
 24 41  1  0
 24 42  1  0
M  CHG  1   9  -1
A    1
-0.23756582
A    2
-0.11150316
A    3
-0.12006556
A    4
-0.163766
A    5
0.13937148
A    6
1.1826328
A    7
-0.59845257
A    8
-0.5923384
A    9
-0.6933367
A   10
0.38389504
A   11
0.1929249
A   12
-0.46605444
A   13
-0.20476773
A   14
-0.30958804
A   15
-0.101366684
A   16
0.31764752
A   17
-0.34399006
A   18
0.17888351
A   19
-0.2267962
A   20
-0.46572062
A   21
0.20252794
A   22
-0.42056826
A   23
-0.44127676
A   24
-0.4346625
A   25
0.15665978
A   26
0.1430162
A   27
0.16270292
A   28
0.16335765
A   29
0.3073555
A   30
0.1533629
A   31
0.1319958
A   32
0.11981924
A   33
0.11436516
A   34
0.09712234
A   35
0.090113945
A   36
0.091971494
A   37
0.08933105
A   38
0.10025677
A   39
0.107092276
A   40
0.10642668
A   41
0.103048086
A   42
0.09593848
M  END
>  <Name>  (87) 
ligand_75

>  <IC50 (nM)>  (87) 
10000

>  <charge>  (87) 
0

$$$$
ligand_70
     RDKit          3D

 32 33  0  0  0  0  0  0  0  0999 V2000
   67.0312   16.6697   52.5422 C   0  0  0  0  0  0  0  0  0  0  0  0
   67.8935   18.9492   52.7753 C   0  0  0  0  0  0  0  0  0  0  0  0
   67.1737   17.9710   52.0589 C   0  0  0  0  0  0  0  0  0  0  0  0
   67.6012   16.3188   53.7603 C   0  0  0  0  0  0  0  0  0  0  0  0
   68.3061   17.2721   54.4956 C   0  0  0  0  0  0  0  0  0  0  0  0
   68.4601   18.5848   54.0084 C   0  0  0  0  0  0  0  0  0  0  0  0
   69.2981   19.7676   55.0713 S   0  0  0  0  0  0  0  0  0  0  0  0
   69.6724   19.0231   56.2699 O   0  0  0  0  0  0  0  0  0  0  0  0
   68.4061   20.9018   55.2194 O   0  0  0  0  0  0  0  0  0  0  0  0
   70.8553   20.2488   54.3814 C   0  0  0  0  0  0  0  0  0  0  0  0
   71.3318   21.5554   54.4783 C   0  0  0  0  0  0  0  0  0  0  0  0
   71.6242   19.2744   53.7243 C   0  0  0  0  0  0  0  0  0  0  0  0
   72.8586   19.6141   53.1663 C   0  0  0  0  0  0  0  0  0  0  0  0
   73.3350   20.9203   53.2666 C   0  0  0  0  0  0  0  0  0  0  0  0
   72.5773   21.8894   53.9257 C   0  0  0  0  0  0  0  0  0  0  0  0
   70.6305   22.6240   55.2071 C   0  0  0  0  0  0  0  0  0  0  0  0
   70.8852   22.7846   56.3990 O   0  0  0  0  0  0  0  0  0  0  0  0
   69.7382   23.5454   54.4213 C   0  0  0  0  0  0  0  0  0  0  0  0
   68.0343   20.3149   52.1686 C   0  0  0  0  0  0  0  0  0  0  0  0
   69.1622   20.8741   52.2993 O   0  0  0  0  0  0  0  0  0  0  0  0
   67.0424   20.7645   51.5199 O   0  0  0  0  0  0  0  0  0  0  0  0
   66.4685   15.9407   51.9668 H   0  0  0  0  0  0  0  0  0  0  0  0
   66.7197   18.2470   51.1066 H   0  0  0  0  0  0  0  0  0  0  0  0
   67.4839   15.3110   54.1475 H   0  0  0  0  0  0  0  0  0  0  0  0
   68.7190   16.9861   55.4603 H   0  0  0  0  0  0  0  0  0  0  0  0
   71.2645   18.2534   53.6314 H   0  0  0  0  0  0  0  0  0  0  0  0
   73.4417   18.8604   52.6441 H   0  0  0  0  0  0  0  0  0  0  0  0
   74.2929   21.1858   52.8284 H   0  0  0  0  0  0  0  0  0  0  0  0
   72.9567   22.9044   54.0117 H   0  0  0  0  0  0  0  0  0  0  0  0
   70.1799   24.5457   54.4148 H   0  0  0  0  0  0  0  0  0  0  0  0
   68.7496   23.5815   54.8853 H   0  0  0  0  0  0  0  0  0  0  0  0
   69.6297   23.2132   53.3869 H   0  0  0  0  0  0  0  0  0  0  0  0
  1  3  2  0
  1  4  1  0
  1 22  1  0
  2  3  1  0
  2  6  2  0
  2 19  1  0
  3 23  1  0
  4  5  2  0
  4 24  1  0
  5  6  1  0
  5 25  1  0
  6  7  1  0
  7  8  2  0
  7  9  2  0
  7 10  1  0
 10 11  2  0
 10 12  1  0
 11 15  1  0
 11 16  1  0
 12 13  2  0
 12 26  1  0
 13 14  1  0
 13 27  1  0
 14 15  2  0
 14 28  1  0
 15 29  1  0
 16 17  2  0
 16 18  1  0
 18 30  1  0
 18 31  1  0
 18 32  1  0
 19 20  2  0
 19 21  1  0
M  CHG  1  21  -1
A    1
-0.09823804
A    2
-0.06761096
A    3
-0.11162463
A    4
-0.10359349
A    5
-0.12083527
A    6
-0.12383021
A    7
1.0153753
A    8
-0.59300965
A    9
-0.548614
A   10
-0.13068178
A   11
-0.044390876
A   12
-0.11030787
A   13
-0.09746677
A   14
-0.094329044
A   15
-0.12928796
A   16
0.50828
A   17
-0.5148804
A   18
-0.5039836
A   19
0.53361845
A   20
-0.55973864
A   21
-0.5381925
A   22
0.12782836
A   23
0.13118987
A   24
0.12677483
A   25
0.14043443
A   26
0.13563132
A   27
0.120579995
A   28
0.11760607
A   29
0.13116379
A   30
0.14533517
A   31
0.13151124
A   32
0.1252869
M  END
>  <Name>  (88) 
ligand_70

>  <IC50 (nM)>  (88) 
16000

>  <charge>  (88) 
-1

$$$$
ligand_58
     RDKit          3D

 57 59  0  0  0  0  0  0  0  0999 V2000
   68.7858   20.0418   50.5865 C   0  0  0  0  0  0  0  0  0  0  0  0
   70.0975   19.9824   50.1148 C   0  0  0  0  0  0  0  0  0  0  0  0
   70.4595   20.6074   48.9115 C   0  0  0  0  0  0  0  0  0  0  0  0
   69.5205   21.3093   48.1383 C   0  0  0  0  0  0  0  0  0  0  0  0
   68.2040   21.3656   48.6313 C   0  0  0  0  0  0  0  0  0  0  0  0
   67.8443   20.7439   49.8364 C   0  0  0  0  0  0  0  0  0  0  0  0
   69.8788   21.9930   46.8088 C   0  0  0  0  0  0  0  0  0  0  0  0
   71.3654   21.8467   46.4125 C   0  0  0  0  0  0  0  0  0  0  0  0
   69.0397   21.3776   45.6682 C   0  0  0  0  0  0  0  0  0  0  0  0
   69.5785   23.5044   46.9038 C   0  0  0  0  0  0  0  0  0  0  0  0
   68.4931   19.3560   51.7813 N   0  0  0  0  0  0  0  0  0  0  0  0
   67.2685   19.2485   52.4205 C   0  0  0  0  0  0  0  0  0  0  0  0
   66.2382   19.8526   52.1219 O   0  0  0  0  0  0  0  0  0  0  0  0
   67.2949   18.3137   53.6198 C   0  0  0  0  0  0  0  0  0  0  0  0
   69.2373   16.4669   54.1075 C   0  0  0  0  0  0  0  0  0  0  0  0
   71.3535   16.2437   55.7014 C   0  0  0  0  0  0  0  0  0  0  0  0
   70.3727   15.3170   55.7262 C   0  0  0  0  0  0  0  0  0  0  0  0
   71.2136   17.3694   54.7125 C   0  0  0  0  0  0  0  0  0  0  0  0
   67.8247   16.6529   53.1012 S   0  0  0  0  0  0  0  0  0  0  0  0
   69.2558   15.4854   54.9378 N   0  0  0  0  0  0  0  0  0  0  0  0
   70.1677   17.3755   53.8834 N   0  0  0  0  0  0  0  0  0  0  0  0
   72.0812   18.2421   54.6892 O   0  0  0  0  0  0  0  0  0  0  0  0
   70.2645   14.0386   56.5938 C   0  0  0  0  0  0  0  0  0  0  0  0
   72.4778   12.8267   56.1631 C   0  0  0  0  0  0  0  0  0  0  0  0
   71.7730   11.7642   55.3238 C   0  0  0  0  0  0  0  0  0  0  0  0
   70.4540   12.2705   54.7474 C   0  0  0  0  0  0  0  0  0  0  0  0
   69.5630   12.8737   55.8351 C   0  0  0  0  0  0  0  0  0  0  0  0
   71.5381   13.4230   57.2124 C   0  0  0  0  0  0  0  0  0  0  0  0
   72.4880   16.2633   56.5633 C   0  0  0  0  0  0  0  0  0  0  0  0
   73.3918   16.2438   57.2984 N   0  0  0  0  0  0  0  0  0  0  0  0
   70.8579   19.4419   50.6763 H   0  0  0  0  0  0  0  0  0  0  0  0
   71.4975   20.5184   48.6032 H   0  0  0  0  0  0  0  0  0  0  0  0
   67.4269   21.8934   48.0797 H   0  0  0  0  0  0  0  0  0  0  0  0
   66.8128   20.8146   50.1616 H   0  0  0  0  0  0  0  0  0  0  0  0
   71.5723   22.3526   45.4619 H   0  0  0  0  0  0  0  0  0  0  0  0
   71.6476   20.7952   46.2851 H   0  0  0  0  0  0  0  0  0  0  0  0
   72.0291   22.2898   47.1641 H   0  0  0  0  0  0  0  0  0  0  0  0
   69.2995   21.8238   44.7011 H   0  0  0  0  0  0  0  0  0  0  0  0
   67.9649   21.5323   45.8141 H   0  0  0  0  0  0  0  0  0  0  0  0
   69.2090   20.2966   45.5930 H   0  0  0  0  0  0  0  0  0  0  0  0
   69.8649   24.0234   45.9816 H   0  0  0  0  0  0  0  0  0  0  0  0
   70.1312   23.9650   47.7311 H   0  0  0  0  0  0  0  0  0  0  0  0
   68.5142   23.7063   47.0669 H   0  0  0  0  0  0  0  0  0  0  0  0
   69.2520   18.8192   52.2106 H   0  0  0  0  0  0  0  0  0  0  0  0
   66.2792   18.2330   54.0209 H   0  0  0  0  0  0  0  0  0  0  0  0
   67.9253   18.7489   54.4014 H   0  0  0  0  0  0  0  0  0  0  0  0
   69.6038   14.3122   57.4291 H   0  0  0  0  0  0  0  0  0  0  0  0
   72.8655   13.6099   55.5032 H   0  0  0  0  0  0  0  0  0  0  0  0
   73.3442   12.3778   56.6622 H   0  0  0  0  0  0  0  0  0  0  0  0
   71.5777   10.8839   55.9489 H   0  0  0  0  0  0  0  0  0  0  0  0
   72.4314   11.4354   54.5119 H   0  0  0  0  0  0  0  0  0  0  0  0
   70.6547   13.0158   53.9690 H   0  0  0  0  0  0  0  0  0  0  0  0
   69.9276   11.4408   54.2621 H   0  0  0  0  0  0  0  0  0  0  0  0
   69.3038   12.0862   56.5562 H   0  0  0  0  0  0  0  0  0  0  0  0
   68.6084   13.1881   55.3982 H   0  0  0  0  0  0  0  0  0  0  0  0
   71.2346   12.6142   57.8929 H   0  0  0  0  0  0  0  0  0  0  0  0
   72.0615   14.1292   57.8577 H   0  0  0  0  0  0  0  0  0  0  0  0
  1  2  2  0
  1  6  1  0
  1 11  1  0
  2  3  1  0
  2 31  1  0
  3  4  2  0
  3 32  1  0
  4  5  1  0
  4  7  1  0
  5  6  2  0
  5 33  1  0
  6 34  1  0
  7  8  1  0
  7  9  1  0
  7 10  1  0
  8 35  1  0
  8 36  1  0
  8 37  1  0
  9 38  1  0
  9 39  1  0
  9 40  1  0
 10 41  1  0
 10 42  1  0
 10 43  1  0
 11 12  1  0
 11 44  1  0
 12 13  2  0
 12 14  1  0
 14 19  1  0
 14 45  1  0
 14 46  1  0
 15 19  1  0
 15 20  2  0
 15 21  1  0
 16 17  2  0
 16 18  1  0
 16 29  1  0
 17 20  1  0
 17 23  1  0
 18 21  1  0
 18 22  2  0
 23 27  1  0
 23 28  1  0
 23 47  1  0
 24 25  1  0
 24 28  1  0
 24 48  1  0
 24 49  1  0
 25 26  1  0
 25 50  1  0
 25 51  1  0
 26 27  1  0
 26 52  1  0
 26 53  1  0
 27 54  1  0
 27 55  1  0
 28 56  1  0
 28 57  1  0
 29 30  3  0
M  CHG  1  21  -1
A    1
0.2838212
A    2
-0.24494387
A    3
-0.11109294
A    4
0.036562663
A    5
-0.11774768
A    6
-0.22507456
A    7
0.21308003
A    8
-0.4409627
A    9
-0.42235163
A   10
-0.46175545
A   11
-0.5415469
A   12
0.5971618
A   13
-0.51296026
A   14
-0.3344152
A   15
0.40196344
A   16
-0.22410533
A   17
0.2490407
A   18
0.5701754
A   19
-0.05641022
A   20
-0.45060188
A   21
-0.5740816
A   22
-0.52518576
A   23
-0.055951167
A   24
-0.13652812
A   25
-0.1232958
A   26
-0.11501427
A   27
-0.16315994
A   28
-0.16181286
A   29
0.29701158
A   30
-0.48493245
A   31
0.14536926
A   32
0.12994848
A   33
0.12751655
A   34
0.13739173
A   35
0.09355996
A   36
0.10078289
A   37
0.09880462
A   38
0.105034105
A   39
0.09513009
A   40
0.09934765
A   41
0.095608294
A   42
0.099341884
A   43
0.0918462
A   44
0.3241012
A   45
0.15167105
A   46
0.13179177
A   47
0.084124915
A   48
0.07220772
A   49
0.0718223
A   50
0.06531173
A   51
0.068237536
A   52
0.070189565
A   53
0.07114302
A   54
0.07456919
A   55
0.07349836
A   56
0.079703495
A   57
0.07706038
M  END
>  <Name>  (89) 
ligand_58

>  <IC50 (nM)>  (89) 
350000

>  <charge>  (89) 
0

$$$$
ligand_61
     RDKit          3D

 35 36  0  0  0  0  0  0  0  0999 V2000
   67.3953   17.5151   53.3845 C   0  0  0  0  0  0  0  0  0  0  0  0
   66.6932   16.5302   52.6845 C   0  0  0  0  0  0  0  0  0  0  0  0
   66.7856   15.1885   53.0654 C   0  0  0  0  0  0  0  0  0  0  0  0
   67.5833   14.8090   54.1541 C   0  0  0  0  0  0  0  0  0  0  0  0
   68.2737   15.8035   54.8631 C   0  0  0  0  0  0  0  0  0  0  0  0
   68.1878   17.1488   54.4743 C   0  0  0  0  0  0  0  0  0  0  0  0
   67.2570   19.1359   52.8071 Cl  0  0  0  0  0  0  0  0  0  0  0  0
   65.8905   14.0258   52.1542 Cl  0  0  0  0  0  0  0  0  0  0  0  0
   67.7249   13.3739   54.5752 C   0  0  0  0  0  0  0  0  0  0  0  0
   69.0836   18.3563   55.4199 S   0  0  0  0  0  0  0  0  0  0  0  0
   69.9384   17.6524   56.3524 O   0  0  0  0  0  0  0  0  0  0  0  0
   68.0555   19.2568   55.8990 O   0  0  0  0  0  0  0  0  0  0  0  0
   70.1928   19.3007   54.4127 C   0  0  0  0  0  0  0  0  0  0  0  0
   70.8856   18.7450   53.3326 C   0  0  0  0  0  0  0  0  0  0  0  0
   70.3486   20.6741   54.6319 C   0  0  0  0  0  0  0  0  0  0  0  0
   71.1204   21.4791   53.7711 C   0  0  0  0  0  0  0  0  0  0  0  0
   71.7794   20.9130   52.6703 C   0  0  0  0  0  0  0  0  0  0  0  0
   71.6623   19.5327   52.4604 C   0  0  0  0  0  0  0  0  0  0  0  0
   70.8837   17.3223   53.0670 N   0  0  0  0  0  0  0  0  0  0  0  0
   71.3760   16.5901   53.9270 O   0  0  0  0  0  0  0  0  0  0  0  0
   70.3819   16.9615   51.9979 O   0  0  0  0  0  0  0  0  0  0  0  0
   69.8127   21.3333   55.8120 N   0  0  0  0  0  0  0  0  0  0  0  0
   69.0457   22.2831   55.6172 O   0  0  0  0  0  0  0  0  0  0  0  0
   70.2444   20.9444   56.9022 O   0  0  0  0  0  0  0  0  0  0  0  0
   72.6052   21.7834   51.7480 C   0  0  0  0  0  0  0  0  0  0  0  0
   73.4982   22.5473   52.4309 F   0  0  0  0  0  0  0  0  0  0  0  0
   73.3290   21.0697   50.8455 F   0  0  0  0  0  0  0  0  0  0  0  0
   71.8356   22.6412   51.0303 F   0  0  0  0  0  0  0  0  0  0  0  0
   66.0742   16.8038   51.8322 H   0  0  0  0  0  0  0  0  0  0  0  0
   68.8902   15.5198   55.7172 H   0  0  0  0  0  0  0  0  0  0  0  0
   66.7514   12.9613   54.8590 H   0  0  0  0  0  0  0  0  0  0  0  0
   68.3881   13.2716   55.4409 H   0  0  0  0  0  0  0  0  0  0  0  0
   68.1537   12.7785   53.7628 H   0  0  0  0  0  0  0  0  0  0  0  0
   71.2214   22.5491   53.9680 H   0  0  0  0  0  0  0  0  0  0  0  0
   72.1837   19.0673   51.6205 H   0  0  0  0  0  0  0  0  0  0  0  0
  1  2  2  0
  1  6  1  0
  1  7  1  0
  2  3  1  0
  2 29  1  0
  3  4  2  0
  3  8  1  0
  4  5  1  0
  4  9  1  0
  5  6  2  0
  5 30  1  0
  6 10  1  0
  9 31  1  0
  9 32  1  0
  9 33  1  0
 10 11  2  0
 10 12  2  0
 10 13  1  0
 13 14  2  0
 13 15  1  0
 14 18  1  0
 14 19  1  0
 15 16  2  0
 15 22  1  0
 16 17  1  0
 16 34  1  0
 17 18  2  0
 17 25  1  0
 18 35  1  0
 19 20  1  0
 19 21  2  0
 22 23  2  0
 22 24  1  0
 25 26  1  0
 25 27  1  0
 25 28  1  0
M  CHG  4  19   1  20  -1  22   1  24  -1
A    1
0.16744035
A    2
-0.22156458
A    3
0.10993504
A    4
0.067110345
A    5
-0.11905905
A    6
-0.1778852
A    7
-0.052194946
A    8
-0.054327715
A    9
-0.37785277
A   10
1.0733821
A   11
-0.4784999
A   12
-0.504149
A   13
-0.18367527
A   14
0.053271748
A   15
0.048814494
A   16
-0.1518837
A   17
-0.08016898
A   18
-0.15095103
A   19
0.55887395
A   20
-0.28585193
A   21
-0.32925895
A   22
0.62727135
A   23
-0.32265776
A   24
-0.30861127
A   25
0.6929422
A   26
-0.22490187
A   27
-0.23434886
A   28
-0.22451247
A   29
0.17022355
A   30
0.15672596
A   31
0.13297479
A   32
0.13019596
A   33
0.13431205
A   34
0.1797929
A   35
0.17908822
M  END
>  <Name>  (90) 
ligand_61

>  <IC50 (nM)>  (90) 
300

>  <charge>  (90) 
0

$$$$
ligand_81
     RDKit          3D

 20 21  0  0  0  0  0  0  0  0999 V2000
   69.5890   20.2167   56.3867 C   0  0  0  0  0  0  0  0  0  0  0  0
   69.8459   20.2577   57.6253 O   0  0  0  0  0  0  0  0  0  0  0  0
   68.8004   19.3562   55.7112 C   0  0  0  0  0  0  0  0  0  0  0  0
   68.5332   19.3716   54.2609 C   0  0  0  0  0  0  0  0  0  0  0  0
   68.0572   19.9354   52.1290 C   0  0  0  0  0  0  0  0  0  0  0  0
   67.7231   18.4566   52.0690 C   0  0  0  0  0  0  0  0  0  0  0  0
   68.1445   20.3669   53.5319 N   0  0  0  0  0  0  0  0  0  0  0  0
   68.6092   17.7952   53.4857 S   0  0  0  0  0  0  0  0  0  0  0  0
   70.3225   21.1984   55.6134 C   0  0  0  0  0  0  0  0  0  0  0  0
   71.6796   22.1097   54.0995 C   0  0  0  0  0  0  0  0  0  0  0  0
   71.1652   23.2728   54.6196 C   0  0  0  0  0  0  0  0  0  0  0  0
   70.0293   22.9084   55.8437 S   0  0  0  0  0  0  0  0  0  0  0  0
   71.1987   20.9411   54.6456 N   0  0  0  0  0  0  0  0  0  0  0  0
   68.3107   18.5656   56.2688 H   0  0  0  0  0  0  0  0  0  0  0  0
   67.2839   20.5143   51.6128 H   0  0  0  0  0  0  0  0  0  0  0  0
   69.0089   20.1495   51.6260 H   0  0  0  0  0  0  0  0  0  0  0  0
   66.6503   18.2921   52.2106 H   0  0  0  0  0  0  0  0  0  0  0  0
   68.0373   17.9957   51.1293 H   0  0  0  0  0  0  0  0  0  0  0  0
   72.4144   22.0522   53.3087 H   0  0  0  0  0  0  0  0  0  0  0  0
   71.3898   24.2913   54.3473 H   0  0  0  0  0  0  0  0  0  0  0  0
  1  2  1  0
  1  3  2  0
  1  9  1  0
  3  4  1  0
  3 14  1  0
  4  7  2  0
  4  8  1  0
  5  6  1  0
  5  7  1  0
  5 15  1  0
  5 16  1  0
  6  8  1  0
  6 17  1  0
  6 18  1  0
  9 12  1  0
  9 13  2  0
 10 11  2  0
 10 13  1  0
 10 19  1  0
 11 12  1  0
 11 20  1  0
M  CHG  1   2  -1
A    1
0.31710312
A    2
-0.49997073
A    3
-0.41271272
A    4
0.24272576
A    5
-0.004499471
A    6
-0.19962615
A    7
-0.5014941
A    8
-0.13965583
A    9
0.06584445
A   10
0.039624553
A   11
-0.2615449
A   12
0.0743106
A   13
-0.40897515
A   14
0.13600734
A   15
0.071163684
A   16
0.067910045
A   17
0.07756962
A   18
0.07876015
A   19
0.11140476
A   20
0.14605498
M  END
>  <Name>  (91) 
ligand_81

>  <IC50 (nM)>  (91) 
40000

>  <charge>  (91) 
-1

$$$$
ligand_69
     RDKit          3D

 27 28  0  0  0  0  0  0  0  0999 V2000
   66.6537   16.5199   53.4889 C   0  0  0  0  0  0  0  0  0  0  0  0
   67.4322   18.7721   54.0725 C   0  0  0  0  0  0  0  0  0  0  0  0
   66.4507   17.9107   53.5515 C   0  0  0  0  0  0  0  0  0  0  0  0
   67.9021   16.0252   53.9088 C   0  0  0  0  0  0  0  0  0  0  0  0
   68.8903   16.8779   54.4317 C   0  0  0  0  0  0  0  0  0  0  0  0
   68.6495   18.2532   54.5281 C   0  0  0  0  0  0  0  0  0  0  0  0
   69.7185   19.2690   55.5438 S   0  0  0  0  0  0  0  0  0  0  0  0
   68.8822   20.3276   56.0922 O   0  0  0  0  0  0  0  0  0  0  0  0
   70.3836   18.3661   56.4728 O   0  0  0  0  0  0  0  0  0  0  0  0
   71.0054   20.0727   54.6083 C   0  0  0  0  0  0  0  0  0  0  0  0
   70.8314   21.3846   54.1771 C   0  0  0  0  0  0  0  0  0  0  0  0
   72.2731   19.5018   54.5426 C   0  0  0  0  0  0  0  0  0  0  0  0
   73.3612   20.2508   54.0429 C   0  0  0  0  0  0  0  0  0  0  0  0
   73.2572   21.5984   53.5858 C   0  0  0  0  0  0  0  0  0  0  0  0
   71.9317   22.1179   53.6806 C   0  0  0  0  0  0  0  0  0  0  0  0
   71.5495   23.9410   53.1820 Br  0  0  0  0  0  0  0  0  0  0  0  0
   75.0654   19.3489   54.0728 Br  0  0  0  0  0  0  0  0  0  0  0  0
   74.2528   22.2750   53.1436 O   0  0  0  0  0  0  0  0  0  0  0  0
   65.5335   15.5762   53.0580 C   0  0  0  0  0  0  0  0  0  0  0  0
   64.3974   16.0766   52.7415 O   0  0  0  0  0  0  0  0  0  0  0  0
   65.7521   14.3141   53.0780 O   0  0  0  0  0  0  0  0  0  0  0  0
   67.2014   19.8291   54.1794 H   0  0  0  0  0  0  0  0  0  0  0  0
   65.4871   18.3140   53.2404 H   0  0  0  0  0  0  0  0  0  0  0  0
   68.0768   14.9499   53.8780 H   0  0  0  0  0  0  0  0  0  0  0  0
   69.8075   16.4436   54.8214 H   0  0  0  0  0  0  0  0  0  0  0  0
   69.8637   21.8692   54.2730 H   0  0  0  0  0  0  0  0  0  0  0  0
   72.4435   18.4999   54.9270 H   0  0  0  0  0  0  0  0  0  0  0  0
  1  3  2  0
  1  4  1  0
  1 19  1  0
  2  3  1  0
  2  6  2  0
  2 22  1  0
  3 23  1  0
  4  5  2  0
  4 24  1  0
  5  6  1  0
  5 25  1  0
  6  7  1  0
  7  8  2  0
  7  9  2  0
  7 10  1  0
 10 11  2  0
 10 12  1  0
 11 15  1  0
 11 26  1  0
 12 13  2  0
 12 27  1  0
 13 14  1  0
 13 17  1  0
 14 15  2  0
 14 18  1  0
 15 16  1  0
 19 20  2  0
 19 21  1  0
M  CHG  2  18  -1  21  -1
A    1
-0.057031415
A    2
-0.11822663
A    3
-0.13022028
A    4
-0.1271541
A    5
-0.119768806
A    6
-0.13806435
A    7
0.81217873
A    8
-0.6059629
A    9
-0.6408805
A   10
-0.11041146
A   11
-0.15954632
A   12
-0.1611072
A   13
-0.003448018
A   14
0.24820493
A   15
-0.0036534558
A   16
-0.06926151
A   17
-0.07945133
A   18
-0.45681807
A   19
0.48755905
A   20
-0.64325374
A   21
-0.6941101
A   22
0.1295583
A   23
0.11692336
A   24
0.12760894
A   25
0.12738721
A   26
0.13159215
A   27
0.13735758
M  END
>  <Name>  (92) 
ligand_69

>  <IC50 (nM)>  (92) 
16000

>  <charge>  (92) 
-1

$$$$
ligand_68
     RDKit          3D

 57 58  0  0  0  0  0  0  0  0999 V2000
   71.1475   25.5780   48.8055 C   0  0  0  0  0  0  0  0  0  0  0  0
   72.0883   24.4237   49.0944 C   0  0  0  0  0  0  0  0  0  0  0  0
   71.4625   22.7012   47.5856 C   0  0  0  0  0  0  0  0  0  0  0  0
   71.4203   23.1738   48.8631 O   0  0  0  0  0  0  0  0  0  0  0  0
   72.0227   23.2599   46.6496 O   0  0  0  0  0  0  0  0  0  0  0  0
   70.7295   21.4049   47.4647 C   0  0  0  0  0  0  0  0  0  0  0  0
   70.1249   20.7521   48.4861 C   0  0  0  0  0  0  0  0  0  0  0  0
   70.7028   20.8556   46.1460 C   0  0  0  0  0  0  0  0  0  0  0  0
   70.6897   20.4226   45.0665 N   0  0  0  0  0  0  0  0  0  0  0  0
   70.0315   21.0986   49.8208 N   0  0  0  0  0  0  0  0  0  0  0  0
   69.4521   20.4320   50.9206 C   0  0  0  0  0  0  0  0  0  0  0  0
   69.0856   20.3958   53.3550 C   0  0  0  0  0  0  0  0  0  0  0  0
   69.6095   20.9990   52.2010 C   0  0  0  0  0  0  0  0  0  0  0  0
   68.7453   19.2239   50.8384 C   0  0  0  0  0  0  0  0  0  0  0  0
   68.2242   18.6005   51.9907 C   0  0  0  0  0  0  0  0  0  0  0  0
   68.4038   19.1857   53.2488 C   0  0  0  0  0  0  0  0  0  0  0  0
   67.7218   18.4137   54.7114 S   0  0  0  0  0  0  0  0  0  0  0  0
   67.7336   19.3892   55.7979 O   0  0  0  0  0  0  0  0  0  0  0  0
   66.4278   17.8411   54.3510 O   0  0  0  0  0  0  0  0  0  0  0  0
   68.8259   17.0803   55.1627 C   0  0  0  0  0  0  0  0  0  0  0  0
   70.0143   17.3476   55.8511 C   0  0  0  0  0  0  0  0  0  0  0  0
   68.4850   15.7636   54.8619 C   0  0  0  0  0  0  0  0  0  0  0  0
   69.3524   14.7227   55.2282 C   0  0  0  0  0  0  0  0  0  0  0  0
   70.5593   14.9588   55.9160 C   0  0  0  0  0  0  0  0  0  0  0  0
   70.8703   16.2909   56.2235 C   0  0  0  0  0  0  0  0  0  0  0  0
   71.3779   13.8522   56.2245 N   0  0  0  0  0  0  0  0  0  0  0  0
   72.6334   13.7741   56.7972 C   0  0  0  0  0  0  0  0  0  0  0  0
   73.4061   12.6882   57.0388 C   0  0  0  0  0  0  0  0  0  0  0  0
   74.6902   12.8418   57.6465 C   0  0  0  0  0  0  0  0  0  0  0  0
   75.7370   12.9497   58.1419 N   0  0  0  0  0  0  0  0  0  0  0  0
   73.0370   11.2785   56.7089 C   0  0  0  0  0  0  0  0  0  0  0  0
   73.7742   10.3171   56.8946 O   0  0  0  0  0  0  0  0  0  0  0  0
   71.3214    9.8959   55.8260 C   0  0  0  0  0  0  0  0  0  0  0  0
   71.7592    9.5500   54.4156 C   0  0  0  0  0  0  0  0  0  0  0  0
   71.7841   11.2091   56.1770 O   0  0  0  0  0  0  0  0  0  0  0  0
   71.6254   26.5346   49.0345 H   0  0  0  0  0  0  0  0  0  0  0  0
   70.2338   25.4875   49.4021 H   0  0  0  0  0  0  0  0  0  0  0  0
   70.8422   25.5825   47.7544 H   0  0  0  0  0  0  0  0  0  0  0  0
   73.0100   24.4987   48.5063 H   0  0  0  0  0  0  0  0  0  0  0  0
   72.3778   24.4399   50.1502 H   0  0  0  0  0  0  0  0  0  0  0  0
   70.4605   21.9987   50.0467 H   0  0  0  0  0  0  0  0  0  0  0  0
   69.6304   19.8083   48.2648 H   0  0  0  0  0  0  0  0  0  0  0  0
   69.2131   20.8891   54.3171 H   0  0  0  0  0  0  0  0  0  0  0  0
   70.1343   21.9471   52.3102 H   0  0  0  0  0  0  0  0  0  0  0  0
   68.5525   18.7697   49.8688 H   0  0  0  0  0  0  0  0  0  0  0  0
   67.6899   17.6564   51.8978 H   0  0  0  0  0  0  0  0  0  0  0  0
   70.2873   18.3734   56.0933 H   0  0  0  0  0  0  0  0  0  0  0  0
   67.5520   15.5242   54.3547 H   0  0  0  0  0  0  0  0  0  0  0  0
   69.0606   13.7018   54.9858 H   0  0  0  0  0  0  0  0  0  0  0  0
   71.7653   16.5237   56.7968 H   0  0  0  0  0  0  0  0  0  0  0  0
   73.0251   14.7499   57.0775 H   0  0  0  0  0  0  0  0  0  0  0  0
   70.9742   12.9442   55.9844 H   0  0  0  0  0  0  0  0  0  0  0  0
   71.6620    9.1457   56.5487 H   0  0  0  0  0  0  0  0  0  0  0  0
   70.2279    9.9187   55.8772 H   0  0  0  0  0  0  0  0  0  0  0  0
   71.3646    8.5754   54.1148 H   0  0  0  0  0  0  0  0  0  0  0  0
   72.8507    9.5244   54.3383 H   0  0  0  0  0  0  0  0  0  0  0  0
   71.4076   10.3077   53.7076 H   0  0  0  0  0  0  0  0  0  0  0  0
  1  2  1  0
  1 36  1  0
  1 37  1  0
  1 38  1  0
  2  4  1  0
  2 39  1  0
  2 40  1  0
  3  4  1  0
  3  5  2  0
  3  6  1  0
  6  7  2  0
  6  8  1  0
  7 10  1  0
  7 42  1  0
  8  9  3  0
 10 11  1  0
 10 41  1  0
 11 13  2  0
 11 14  1  0
 12 13  1  0
 12 16  2  0
 12 43  1  0
 13 44  1  0
 14 15  2  0
 14 45  1  0
 15 16  1  0
 15 46  1  0
 16 17  1  0
 17 18  2  0
 17 19  2  0
 17 20  1  0
 20 21  2  0
 20 22  1  0
 21 25  1  0
 21 47  1  0
 22 23  2  0
 22 48  1  0
 23 24  1  0
 23 49  1  0
 24 25  2  0
 24 26  1  0
 25 50  1  0
 26 27  1  0
 26 52  1  0
 27 28  2  0
 27 51  1  0
 28 29  1  0
 28 31  1  0
 29 30  3  0
 31 32  2  0
 31 35  1  0
 33 34  1  0
 33 35  1  0
 33 53  1  0
 33 54  1  0
 34 55  1  0
 34 56  1  0
 34 57  1  0
A    1
-0.3977062
A    2
0.0800091
A    3
0.6034567
A    4
-0.29665425
A    5
-0.51919574
A    6
-0.23139518
A    7
0.14417574
A    8
0.28823557
A    9
-0.44139513
A   10
-0.3427797
A   11
0.2783197
A   12
-0.08041195
A   13
-0.23010524
A   14
-0.22661063
A   15
-0.08080312
A   16
-0.11088839
A   17
1.1544098
A   18
-0.4914893
A   19
-0.51555765
A   20
-0.13648304
A   21
-0.08884565
A   22
-0.083761975
A   23
-0.257348
A   24
0.27555287
A   25
-0.23258202
A   26
-0.33599868
A   27
0.16212192
A   28
-0.23852949
A   29
0.25805333
A   30
-0.45580497
A   31
0.5918746
A   32
-0.50806415
A   33
0.073414944
A   34
-0.39265087
A   35
-0.2653321
A   36
0.09777907
A   37
0.106462725
A   38
0.110227756
A   39
0.08162341
A   40
0.07803658
A   41
0.31417915
A   42
0.14317007
A   43
0.15278155
A   44
0.15972745
A   45
0.14615424
A   46
0.14496668
A   47
0.15478894
A   48
0.14845653
A   49
0.15163867
A   50
0.13752882
A   51
0.1410658
A   52
0.30891088
A   53
0.07797595
A   54
0.08195641
A   55
0.10198667
A   56
0.108456425
A   57
0.102895066
M  END
>  <Name>  (93) 
ligand_68

>  <IC50 (nM)>  (93) 
16000

>  <charge>  (93) 
0

$$$$
ligand_97
     RDKit          3D

 35 36  0  0  0  0  0  0  0  0999 V2000
   70.6410   19.5106   50.4680 C   0  0  0  0  0  0  0  0  0  0  0  0
   70.1409   19.7312   51.7535 C   0  0  0  0  0  0  0  0  0  0  0  0
   68.8309   20.1844   51.9007 C   0  0  0  0  0  0  0  0  0  0  0  0
   68.0297   20.4163   50.7786 C   0  0  0  0  0  0  0  0  0  0  0  0
   68.5319   20.2040   49.4903 C   0  0  0  0  0  0  0  0  0  0  0  0
   69.8443   19.7429   49.3414 C   0  0  0  0  0  0  0  0  0  0  0  0
   67.6971   20.4392   48.2706 C   0  0  0  0  0  0  0  0  0  0  0  0
   66.4060   21.1863   48.4639 C   0  0  0  0  0  0  0  0  0  0  0  0
   68.0828   19.9669   47.2054 O   0  0  0  0  0  0  0  0  0  0  0  0
   65.7100   21.7426   47.2598 C   0  0  0  0  0  0  0  0  0  0  0  0
   64.2277   22.0551   47.4674 C   0  0  0  0  0  0  0  0  0  0  0  0
   66.2374   22.0723   46.2016 O   0  0  0  0  0  0  0  0  0  0  0  0
   63.4424   21.9810   46.4726 O   0  0  0  0  0  0  0  0  0  0  0  0
   63.9252   22.3273   48.6773 O   0  0  0  0  0  0  0  0  0  0  0  0
   71.0220   19.4694   52.7668 O   0  0  0  0  0  0  0  0  0  0  0  0
   70.5780   19.6763   54.1080 C   0  0  0  0  0  0  0  0  0  0  0  0
   70.7413   21.1100   54.5590 C   0  0  0  0  0  0  0  0  0  0  0  0
   69.6657   21.7984   55.1378 C   0  0  0  0  0  0  0  0  0  0  0  0
   69.7925   23.1396   55.5037 C   0  0  0  0  0  0  0  0  0  0  0  0
   71.0028   23.8012   55.3172 C   0  0  0  0  0  0  0  0  0  0  0  0
   72.0829   23.1236   54.7557 C   0  0  0  0  0  0  0  0  0  0  0  0
   71.9576   21.7836   54.3842 C   0  0  0  0  0  0  0  0  0  0  0  0
   71.6605   19.1562   50.3375 H   0  0  0  0  0  0  0  0  0  0  0  0
   68.3866   20.3759   52.8699 H   0  0  0  0  0  0  0  0  0  0  0  0
   67.0113   20.7585   50.9455 H   0  0  0  0  0  0  0  0  0  0  0  0
   70.2522   19.5659   48.3482 H   0  0  0  0  0  0  0  0  0  0  0  0
   66.5908   22.0468   49.1181 H   0  0  0  0  0  0  0  0  0  0  0  0
   65.7170   20.4884   48.9559 H   0  0  0  0  0  0  0  0  0  0  0  0
   69.5690   19.2805   54.2769 H   0  0  0  0  0  0  0  0  0  0  0  0
   71.2281   19.0636   54.7465 H   0  0  0  0  0  0  0  0  0  0  0  0
   68.7002   21.3102   55.2589 H   0  0  0  0  0  0  0  0  0  0  0  0
   68.9246   23.6728   55.8833 H   0  0  0  0  0  0  0  0  0  0  0  0
   71.1014   24.8485   55.5883 H   0  0  0  0  0  0  0  0  0  0  0  0
   73.0204   23.6449   54.5871 H   0  0  0  0  0  0  0  0  0  0  0  0
   72.8065   21.2736   53.9327 H   0  0  0  0  0  0  0  0  0  0  0  0
  1  2  2  0
  1  6  1  0
  1 23  1  0
  2  3  1  0
  2 15  1  0
  3  4  2  0
  3 24  1  0
  4  5  1  0
  4 25  1  0
  5  6  2  0
  5  7  1  0
  6 26  1  0
  7  8  1  0
  7  9  2  0
  8 10  1  0
  8 27  1  0
  8 28  1  0
 10 11  1  0
 10 12  2  0
 11 13  2  0
 11 14  1  0
 15 16  1  0
 16 17  1  0
 16 29  1  0
 16 30  1  0
 17 18  2  0
 17 22  1  0
 18 19  1  0
 18 31  1  0
 19 20  2  0
 19 32  1  0
 20 21  1  0
 20 33  1  0
 21 22  2  0
 21 34  1  0
 22 35  1  0
M  CHG  1  14  -1
A    1
-0.26515016
A    2
0.29369193
A    3
-0.26031932
A    4
-0.100796156
A    5
-0.042220477
A    6
-0.09248245
A    7
0.4171801
A    8
-0.43430543
A    9
-0.49281162
A   10
0.34880564
A   11
0.44622943
A   12
-0.49367046
A   13
-0.50058436
A   14
-0.56360835
A   15
-0.24118222
A   16
-0.020347146
A   17
0.062140953
A   18
-0.15826327
A   19
-0.09564111
A   20
-0.10269691
A   21
-0.09803641
A   22
-0.14632079
A   23
0.12957735
A   24
0.13089591
A   25
0.120683074
A   26
0.11445923
A   27
0.14384463
A   28
0.14438967
A   29
0.07102293
A   30
0.08716087
A   31
0.11541404
A   32
0.12228643
A   33
0.11987422
A   34
0.114874244
A   35
0.1259058
M  END
>  <Name>  (94) 
ligand_97

>  <IC50 (nM)>  (94) 
39900

>  <charge>  (94) 
-1

$$$$
